<?xml version="1.0" encoding="UTF-8"?>

<!-- generated on 2023-09-07 11:29:33 by Eclipse SUMO netedit Version 1.18.0
<configuration xmlns:xsi="http://www.w3.org/2001/XMLSchema-instance" xsi:noNamespaceSchemaLocation="http://sumo.dlr.de/xsd/neteditConfiguration.xsd">

    <input>
        <sumocfg-file value="/home/ahoope5/Desktop/newGitHubStuff/multimodal-rl/Experiments/3x3/Nets/3x3b.sumocfg"/>
        <additional-files value="/home/ahoope5/Desktop/newGitHubStuff/multimodal-rl/Experiments/3x3/Nets/parkingareas.add.xml"/>
        <route-files value="/home/ahoope5/Desktop/newGitHubStuff/multimodal-rl/Experiments/3x3/Nets/3x3_2.rou.xml"/>
        <sumo-net-file value="/home/ahoope5/Desktop/newGitHubStuff/multimodal-rl/Experiments/3x3/Nets/3x3.net.xml"/>
    </input>

    <output>
        <output-file value="/home/ahoope5/Desktop/newGitHubStuff/multimodal-rl/Experiments/3x3/Nets/3x3.net.xml"/>
    </output>

    <processing>
        <geometry.min-radius.fix.railways value="false"/>
        <geometry.max-grade.fix value="false"/>
        <offset.disable-normalization value="true"/>
        <lefthand value="0"/>
    </processing>

    <junctions>
        <no-internal-links value="false"/>
        <no-turnarounds value="true"/>
        <junctions.corner-detail value="5"/>
        <junctions.limit-turn-speed value="5.50"/>
        <rectangular-lane-cut value="0"/>
    </junctions>

    <pedestrian>
        <walkingareas value="0"/>
    </pedestrian>

</configuration>
-->

<net version="1.16" junctionCornerDetail="5" limitTurnSpeed="5.50" xmlns:xsi="http://www.w3.org/2001/XMLSchema-instance" xsi:noNamespaceSchemaLocation="http://sumo.dlr.de/xsd/net_file.xsd">

    <location netOffset="0.00,0.00" convBoundary="-75.00,-175.00,150.00,50.00" origBoundary="-10000000000.00,-10000000000.00,10000000000.00,10000000000.00" projParameter="!"/>

    <edge id=":a1_0" function="internal">
        <lane id=":a1_0_0" index="0" disallow="pedestrian" speed="7.10" length="10.97" shape="-69.80,51.60 -72.77,51.17 -74.90,49.90 -76.17,47.78 -76.60,44.80"/>
    </edge>
    <edge id=":a1_1" function="internal">
        <lane id=":a1_1_0" index="0" disallow="pedestrian" speed="3.65" length="1.44" shape="-69.80,51.60 -71.00,50.80"/>
    </edge>
    <edge id=":a1_4" function="internal">
        <lane id=":a1_4_0" index="0" disallow="pedestrian" speed="3.65" length="3.23" shape="-71.00,50.80 -71.40,50.00 -71.00,49.20 -69.80,48.40"/>
    </edge>
    <edge id=":a1_2" function="internal">
        <lane id=":a1_2_0" index="0" disallow="pedestrian" speed="5.37" length="5.81" shape="-73.40,44.80 -73.17,46.38 -72.50,47.50 -71.38,48.17 -69.80,48.40"/>
    </edge>
    <edge id=":a1_3" function="internal">
        <lane id=":a1_3_0" index="0" disallow="pedestrian" speed="3.65" length="1.30" shape="-73.40,44.80 -74.12,45.88"/>
    </edge>
    <edge id=":a1_5" function="internal">
        <lane id=":a1_5_0" index="0" disallow="pedestrian" speed="3.65" length="3.37" shape="-74.12,45.88 -74.20,46.00 -75.00,46.40 -75.80,46.00 -76.60,44.80"/>
    </edge>
    <edge id=":a1_c0" function="crossing" crossingEdges="1e 1w">
        <lane id=":a1_c0_0" index="0" allow="pedestrian" speed="2.78" length="6.40" width="4.00" shape="-71.80,46.80 -71.80,53.20"/>
    </edge>
    <edge id=":a1_c1" function="crossing" crossingEdges="4s 4n">
        <lane id=":a1_c1_0" index="0" allow="pedestrian" speed="2.78" length="6.40" width="4.00" shape="-78.20,46.80 -71.80,46.80"/>
    </edge>
    <edge id=":a1_w0" function="walkingarea">
        <lane id=":a1_w0_0" index="0" allow="pedestrian" speed="2.78" length="8.20" width="4.00" shape="-78.20,44.80 -80.20,44.80 -79.94,48.12 -79.14,50.76 -77.76,52.76 -75.76,54.14 -73.12,54.94 -69.80,55.20 -69.80,53.20 -72.37,52.97 -74.47,52.27 -76.10,51.10 -77.27,49.47 -77.97,47.37"/>
    </edge>
    <edge id=":a1_w1" function="walkingarea">
        <lane id=":a1_w1_0" index="0" allow="pedestrian" speed="2.78" length="1.73" width="4.00" shape="-69.80,46.80 -69.80,44.80 -71.80,44.80 -71.74,45.41 -71.58,45.91 -71.30,46.30 -70.91,46.58 -70.41,46.74"/>
    </edge>
    <edge id=":a2_0" function="internal">
        <lane id=":a2_0_0" index="0" disallow="pedestrian" speed="13.89" length="14.40" shape="7.20,51.60 -7.20,51.60"/>
    </edge>
    <edge id=":a2_1" function="internal">
        <lane id=":a2_1_0" index="0" disallow="pedestrian" speed="8.00" length="4.07" shape="7.20,51.60 3.35,51.05 3.20,50.96"/>
    </edge>
    <edge id=":a2_2" function="internal">
        <lane id=":a2_2_0" index="0" disallow="pedestrian" speed="3.65" length="1.44" shape="7.20,51.60 6.00,50.80"/>
    </edge>
    <edge id=":a2_9" function="internal">
        <lane id=":a2_9_0" index="0" disallow="pedestrian" speed="8.00" length="10.13" shape="3.20,50.96 0.60,49.40 -1.05,46.65 -1.60,42.80"/>
    </edge>
    <edge id=":a2_10" function="internal">
        <lane id=":a2_10_0" index="0" disallow="pedestrian" speed="3.65" length="3.23" shape="6.00,50.80 5.60,50.00 6.00,49.20 7.20,48.40"/>
    </edge>
    <edge id=":a2_3" function="internal">
        <lane id=":a2_3_0" index="0" disallow="pedestrian" speed="6.51" length="9.03" shape="1.60,42.80 1.95,45.25 3.00,47.00 4.75,48.05 7.20,48.40"/>
    </edge>
    <edge id=":a2_4" function="internal">
        <lane id=":a2_4_0" index="0" disallow="pedestrian" speed="8.00" length="14.19" shape="1.60,42.80 1.05,46.65 -0.60,49.40 -3.35,51.05 -7.20,51.60"/>
    </edge>
    <edge id=":a2_5" function="internal">
        <lane id=":a2_5_0" index="0" disallow="pedestrian" speed="3.65" length="4.67" shape="1.60,42.80 0.80,44.00 0.00,44.40 -0.80,44.00 -1.60,42.80"/>
    </edge>
    <edge id=":a2_6" function="internal">
        <lane id=":a2_6_0" index="0" disallow="pedestrian" speed="6.51" length="4.75" shape="-7.20,48.40 -4.75,48.05 -3.00,47.00 -2.88,46.80"/>
    </edge>
    <edge id=":a2_7" function="internal">
        <lane id=":a2_7_0" index="0" disallow="pedestrian" speed="13.89" length="14.40" shape="-7.20,48.40 7.20,48.40"/>
    </edge>
    <edge id=":a2_8" function="internal">
        <lane id=":a2_8_0" index="0" disallow="pedestrian" speed="3.65" length="1.44" shape="-7.20,48.40 -6.00,49.20"/>
    </edge>
    <edge id=":a2_11" function="internal">
        <lane id=":a2_11_0" index="0" disallow="pedestrian" speed="6.51" length="4.28" shape="-2.88,46.80 -1.95,45.25 -1.60,42.80"/>
    </edge>
    <edge id=":a2_12" function="internal">
        <lane id=":a2_12_0" index="0" disallow="pedestrian" speed="3.65" length="3.23" shape="-6.00,49.20 -5.60,50.00 -6.00,50.80 -7.20,51.60"/>
    </edge>
    <edge id=":a2_c0" function="crossing" crossingEdges="2e 2w">
        <lane id=":a2_c0_0" index="0" allow="pedestrian" speed="2.78" length="6.40" width="4.00" shape="5.20,46.80 5.20,53.20"/>
    </edge>
    <edge id=":a2_c1" function="crossing" crossingEdges="5s 5n">
        <lane id=":a2_c1_0" index="0" allow="pedestrian" speed="2.78" length="6.40" width="4.00" shape="-3.20,44.80 3.20,44.80"/>
    </edge>
    <edge id=":a2_c2" function="crossing" crossingEdges="1w 1e">
        <lane id=":a2_c2_0" index="0" allow="pedestrian" speed="2.78" length="6.40" width="4.00" shape="-5.20,53.20 -5.20,46.80"/>
    </edge>
    <edge id=":a2_w0" function="walkingarea">
        <lane id=":a2_w0_0" index="0" allow="pedestrian" speed="2.78" length="9.03" width="4.00" shape="-3.20,53.20 -7.20,53.20 -7.20,55.20 7.20,55.20 7.20,53.20 3.20,53.20"/>
    </edge>
    <edge id=":a2_w1" function="walkingarea">
        <lane id=":a2_w1_0" index="0" allow="pedestrian" speed="2.78" length="3.30" width="4.00" shape="7.20,46.80 7.20,44.80 5.20,42.80 3.20,42.80 3.31,44.02 3.64,45.02 4.20,45.80 4.98,46.36 5.98,46.69"/>
    </edge>
    <edge id=":a2_w2" function="walkingarea">
        <lane id=":a2_w2_0" index="0" allow="pedestrian" speed="2.78" length="3.30" width="4.00" shape="-3.20,42.80 -5.20,42.80 -7.20,44.80 -7.20,46.80 -5.98,46.69 -4.98,46.36 -4.20,45.80 -3.64,45.02 -3.31,44.02"/>
    </edge>
    <edge id=":a3_0" function="internal">
        <lane id=":a3_0_0" index="0" disallow="pedestrian" speed="13.89" length="14.40" shape="82.20,51.60 67.80,51.60"/>
    </edge>
    <edge id=":a3_1" function="internal">
        <lane id=":a3_1_0" index="0" disallow="pedestrian" speed="8.00" length="4.07" shape="82.20,51.60 78.35,51.05 78.20,50.96"/>
    </edge>
    <edge id=":a3_2" function="internal">
        <lane id=":a3_2_0" index="0" disallow="pedestrian" speed="3.65" length="1.44" shape="82.20,51.60 81.00,50.80"/>
    </edge>
    <edge id=":a3_9" function="internal">
        <lane id=":a3_9_0" index="0" disallow="pedestrian" speed="8.00" length="10.13" shape="78.20,50.96 75.60,49.40 73.95,46.65 73.40,42.80"/>
    </edge>
    <edge id=":a3_10" function="internal">
        <lane id=":a3_10_0" index="0" disallow="pedestrian" speed="3.65" length="3.23" shape="81.00,50.80 80.60,50.00 81.00,49.20 82.20,48.40"/>
    </edge>
    <edge id=":a3_3" function="internal">
        <lane id=":a3_3_0" index="0" disallow="pedestrian" speed="6.51" length="9.03" shape="76.60,42.80 76.95,45.25 78.00,47.00 79.75,48.05 82.20,48.40"/>
    </edge>
    <edge id=":a3_4" function="internal">
        <lane id=":a3_4_0" index="0" disallow="pedestrian" speed="8.00" length="14.19" shape="76.60,42.80 76.05,46.65 74.40,49.40 71.65,51.05 67.80,51.60"/>
    </edge>
    <edge id=":a3_5" function="internal">
        <lane id=":a3_5_0" index="0" disallow="pedestrian" speed="3.65" length="4.67" shape="76.60,42.80 75.80,44.00 75.00,44.40 74.20,44.00 73.40,42.80"/>
    </edge>
    <edge id=":a3_6" function="internal">
        <lane id=":a3_6_0" index="0" disallow="pedestrian" speed="6.51" length="4.75" shape="67.80,48.40 70.25,48.05 72.00,47.00 72.12,46.80"/>
    </edge>
    <edge id=":a3_7" function="internal">
        <lane id=":a3_7_0" index="0" disallow="pedestrian" speed="13.89" length="14.40" shape="67.80,48.40 82.20,48.40"/>
    </edge>
    <edge id=":a3_8" function="internal">
        <lane id=":a3_8_0" index="0" disallow="pedestrian" speed="3.65" length="1.44" shape="67.80,48.40 69.00,49.20"/>
    </edge>
    <edge id=":a3_11" function="internal">
        <lane id=":a3_11_0" index="0" disallow="pedestrian" speed="6.51" length="4.28" shape="72.12,46.80 73.05,45.25 73.40,42.80"/>
    </edge>
    <edge id=":a3_12" function="internal">
        <lane id=":a3_12_0" index="0" disallow="pedestrian" speed="3.65" length="3.23" shape="69.00,49.20 69.40,50.00 69.00,50.80 67.80,51.60"/>
    </edge>
    <edge id=":a3_c0" function="crossing" crossingEdges="3e 3w">
        <lane id=":a3_c0_0" index="0" allow="pedestrian" speed="2.78" length="6.40" width="4.00" shape="80.20,46.80 80.20,53.20"/>
    </edge>
    <edge id=":a3_c1" function="crossing" crossingEdges="6s 6n">
        <lane id=":a3_c1_0" index="0" allow="pedestrian" speed="2.78" length="6.40" width="4.00" shape="71.80,44.80 78.20,44.80"/>
    </edge>
    <edge id=":a3_c2" function="crossing" crossingEdges="2w 2e">
        <lane id=":a3_c2_0" index="0" allow="pedestrian" speed="2.78" length="6.40" width="4.00" shape="69.80,53.20 69.80,46.80"/>
    </edge>
    <edge id=":a3_w0" function="walkingarea">
        <lane id=":a3_w0_0" index="0" allow="pedestrian" speed="2.78" length="9.03" width="4.00" shape="71.80,53.20 67.80,53.20 67.80,55.20 82.20,55.20 82.20,53.20 78.20,53.20"/>
    </edge>
    <edge id=":a3_w1" function="walkingarea">
        <lane id=":a3_w1_0" index="0" allow="pedestrian" speed="2.78" length="3.30" width="4.00" shape="82.20,46.80 82.20,44.80 80.20,42.80 78.20,42.80 78.31,44.02 78.64,45.02 79.20,45.80 79.98,46.36 80.98,46.69"/>
    </edge>
    <edge id=":a3_w2" function="walkingarea">
        <lane id=":a3_w2_0" index="0" allow="pedestrian" speed="2.78" length="3.30" width="4.00" shape="71.80,42.80 69.80,42.80 67.80,44.80 67.80,46.80 69.02,46.69 70.02,46.36 70.80,45.80 71.36,45.02 71.69,44.02"/>
    </edge>
    <edge id=":a4_0" function="internal">
        <lane id=":a4_0_0" index="0" disallow="pedestrian" speed="7.10" length="10.97" shape="151.60,44.80 151.18,47.77 149.90,49.90 147.77,51.17 144.80,51.60"/>
    </edge>
    <edge id=":a4_1" function="internal">
        <lane id=":a4_1_0" index="0" disallow="pedestrian" speed="3.65" length="1.44" shape="151.60,44.80 150.80,46.00"/>
    </edge>
    <edge id=":a4_4" function="internal">
        <lane id=":a4_4_0" index="0" disallow="pedestrian" speed="3.65" length="3.23" shape="150.80,46.00 150.00,46.40 149.20,46.00 148.40,44.80"/>
    </edge>
    <edge id=":a4_2" function="internal">
        <lane id=":a4_2_0" index="0" disallow="pedestrian" speed="5.37" length="5.81" shape="144.80,48.40 146.38,48.17 147.50,47.50 148.18,46.38 148.40,44.80"/>
    </edge>
    <edge id=":a4_3" function="internal">
        <lane id=":a4_3_0" index="0" disallow="pedestrian" speed="3.65" length="1.30" shape="144.80,48.40 145.88,49.12"/>
    </edge>
    <edge id=":a4_5" function="internal">
        <lane id=":a4_5_0" index="0" disallow="pedestrian" speed="3.65" length="3.37" shape="145.88,49.12 146.00,49.20 146.40,50.00 146.00,50.80 144.80,51.60"/>
    </edge>
    <edge id=":a4_c0" function="crossing" crossingEdges="7s 7n">
        <lane id=":a4_c0_0" index="0" allow="pedestrian" speed="2.78" length="6.40" width="4.00" shape="146.80,46.80 153.20,46.80"/>
    </edge>
    <edge id=":a4_c1" function="crossing" crossingEdges="3w 3e">
        <lane id=":a4_c1_0" index="0" allow="pedestrian" speed="2.78" length="6.40" width="4.00" shape="146.80,53.20 146.80,46.80"/>
    </edge>
    <edge id=":a4_w0" function="walkingarea">
        <lane id=":a4_w0_0" index="0" allow="pedestrian" speed="2.78" length="8.20" width="4.00" shape="144.80,53.20 144.80,55.20 148.12,54.94 150.76,54.14 152.76,52.76 154.14,50.76 154.94,48.12 155.20,44.80 153.20,44.80 152.97,47.37 152.27,49.47 151.10,51.10 149.47,52.27 147.37,52.97"/>
    </edge>
    <edge id=":a4_w1" function="walkingarea">
        <lane id=":a4_w1_0" index="0" allow="pedestrian" speed="2.78" length="1.73" width="4.00" shape="146.80,44.80 144.80,44.80 144.80,46.80 145.41,46.74 145.91,46.58 146.30,46.30 146.58,45.91 146.74,45.41"/>
    </edge>
    <edge id=":b1_0" function="internal">
        <lane id=":b1_0_0" index="0" disallow="pedestrian" speed="13.89" length="14.40" shape="-76.60,-17.80 -76.60,-32.20"/>
    </edge>
    <edge id=":b1_1" function="internal">
        <lane id=":b1_1_0" index="0" disallow="pedestrian" speed="8.00" length="4.07" shape="-76.60,-17.80 -76.05,-21.65 -75.96,-21.80"/>
    </edge>
    <edge id=":b1_2" function="internal">
        <lane id=":b1_2_0" index="0" disallow="pedestrian" speed="3.65" length="1.44" shape="-76.60,-17.80 -75.80,-19.00"/>
    </edge>
    <edge id=":b1_9" function="internal">
        <lane id=":b1_9_0" index="0" disallow="pedestrian" speed="8.00" length="10.13" shape="-75.96,-21.80 -74.40,-24.40 -71.65,-26.05 -67.80,-26.60"/>
    </edge>
    <edge id=":b1_10" function="internal">
        <lane id=":b1_10_0" index="0" disallow="pedestrian" speed="3.65" length="3.23" shape="-75.80,-19.00 -75.00,-19.40 -74.20,-19.00 -73.40,-17.80"/>
    </edge>
    <edge id=":b1_3" function="internal">
        <lane id=":b1_3_0" index="0" disallow="pedestrian" speed="6.51" length="9.03" shape="-67.80,-23.40 -70.25,-23.05 -72.00,-22.00 -73.05,-20.25 -73.40,-17.80"/>
    </edge>
    <edge id=":b1_4" function="internal">
        <lane id=":b1_4_0" index="0" disallow="pedestrian" speed="8.00" length="14.19" shape="-67.80,-23.40 -71.65,-23.95 -74.40,-25.60 -76.05,-28.35 -76.60,-32.20"/>
    </edge>
    <edge id=":b1_5" function="internal">
        <lane id=":b1_5_0" index="0" disallow="pedestrian" speed="3.65" length="4.67" shape="-67.80,-23.40 -69.00,-24.20 -69.40,-25.00 -69.00,-25.80 -67.80,-26.60"/>
    </edge>
    <edge id=":b1_6" function="internal">
        <lane id=":b1_6_0" index="0" disallow="pedestrian" speed="6.51" length="9.03" shape="-73.40,-32.20 -73.05,-29.75 -72.00,-28.00 -70.25,-26.95 -67.80,-26.60"/>
    </edge>
    <edge id=":b1_7" function="internal">
        <lane id=":b1_7_0" index="0" disallow="pedestrian" speed="13.89" length="14.40" shape="-73.40,-32.20 -73.40,-17.80"/>
    </edge>
    <edge id=":b1_8" function="internal">
        <lane id=":b1_8_0" index="0" disallow="pedestrian" speed="3.65" length="1.44" shape="-73.40,-32.20 -74.20,-31.00"/>
    </edge>
    <edge id=":b1_11" function="internal">
        <lane id=":b1_11_0" index="0" disallow="pedestrian" speed="3.65" length="3.23" shape="-74.20,-31.00 -75.00,-30.60 -75.80,-31.00 -76.60,-32.20"/>
    </edge>
    <edge id=":b1_w0" function="walkingarea">
        <lane id=":b1_w0_0" index="0" allow="pedestrian" speed="2.78" length="14.40" width="2.00" shape="-78.20,-32.20 -80.20,-32.20 -80.20,-17.80 -78.20,-17.80"/>
    </edge>
    <edge id=":b1_w1" function="walkingarea">
        <lane id=":b1_w1_0" index="0" allow="pedestrian" speed="2.78" length="4.24" width="2.00" shape="-71.80,-17.80 -69.80,-17.80 -67.80,-19.80 -67.80,-21.80 -69.02,-21.69 -70.02,-21.36 -70.80,-20.80 -71.36,-20.02 -71.69,-19.02"/>
    </edge>
    <edge id=":b1_w2" function="walkingarea">
        <lane id=":b1_w2_0" index="0" allow="pedestrian" speed="2.78" length="4.24" width="2.00" shape="-67.80,-28.20 -67.80,-30.20 -69.80,-32.20 -71.80,-32.20 -71.69,-30.98 -71.36,-29.98 -70.80,-29.20 -70.02,-28.64 -69.02,-28.31"/>
    </edge>
    <edge id=":b2_0" function="internal">
        <lane id=":b2_0_0" index="0" disallow="pedestrian" speed="6.51" length="9.03" shape="-1.60,-17.80 -1.95,-20.25 -3.00,-22.00 -4.75,-23.05 -7.20,-23.40"/>
    </edge>
    <edge id=":b2_1" function="internal">
        <lane id=":b2_1_0" index="0" disallow="pedestrian" speed="13.89" length="14.40" shape="-1.60,-17.80 -1.60,-32.20"/>
    </edge>
    <edge id=":b2_2" function="internal">
        <lane id=":b2_2_0" index="0" disallow="pedestrian" speed="8.00" length="4.07" shape="-1.60,-17.80 -1.05,-21.65 -0.96,-21.80"/>
    </edge>
    <edge id=":b2_3" function="internal">
        <lane id=":b2_3_0" index="0" disallow="pedestrian" speed="3.65" length="1.44" shape="-1.60,-17.80 -0.80,-19.00"/>
    </edge>
    <edge id=":b2_16" function="internal">
        <lane id=":b2_16_0" index="0" disallow="pedestrian" speed="8.00" length="10.13" shape="-0.96,-21.80 0.60,-24.40 3.35,-26.05 7.20,-26.60"/>
    </edge>
    <edge id=":b2_17" function="internal">
        <lane id=":b2_17_0" index="0" disallow="pedestrian" speed="3.65" length="3.23" shape="-0.80,-19.00 0.00,-19.40 0.80,-19.00 1.60,-17.80"/>
    </edge>
    <edge id=":b2_4" function="internal">
        <lane id=":b2_4_0" index="0" disallow="pedestrian" speed="6.51" length="9.03" shape="7.20,-23.40 4.75,-23.05 3.00,-22.00 1.95,-20.25 1.60,-17.80"/>
    </edge>
    <edge id=":b2_5" function="internal">
        <lane id=":b2_5_0" index="0" disallow="pedestrian" speed="13.89" length="14.40" shape="7.20,-23.40 -7.20,-23.40"/>
    </edge>
    <edge id=":b2_6" function="internal">
        <lane id=":b2_6_0" index="0" disallow="pedestrian" speed="8.00" length="14.19" shape="7.20,-23.40 3.35,-23.95 0.60,-25.60 -1.05,-28.35 -1.60,-32.20"/>
    </edge>
    <edge id=":b2_7" function="internal">
        <lane id=":b2_7_0" index="0" disallow="pedestrian" speed="3.65" length="4.67" shape="7.20,-23.40 6.00,-24.20 5.60,-25.00 6.00,-25.80 7.20,-26.60"/>
    </edge>
    <edge id=":b2_8" function="internal">
        <lane id=":b2_8_0" index="0" disallow="pedestrian" speed="6.51" length="9.03" shape="1.60,-32.20 1.95,-29.75 3.00,-28.00 4.75,-26.95 7.20,-26.60"/>
    </edge>
    <edge id=":b2_9" function="internal">
        <lane id=":b2_9_0" index="0" disallow="pedestrian" speed="13.89" length="14.40" shape="1.60,-32.20 1.60,-17.80"/>
    </edge>
    <edge id=":b2_10" function="internal">
        <lane id=":b2_10_0" index="0" disallow="pedestrian" speed="8.00" length="4.07" shape="1.60,-32.20 1.05,-28.35 0.96,-28.20"/>
    </edge>
    <edge id=":b2_11" function="internal">
        <lane id=":b2_11_0" index="0" disallow="pedestrian" speed="3.65" length="1.44" shape="1.60,-32.20 0.80,-31.00"/>
    </edge>
    <edge id=":b2_18" function="internal">
        <lane id=":b2_18_0" index="0" disallow="pedestrian" speed="8.00" length="10.13" shape="0.96,-28.20 -0.60,-25.60 -3.35,-23.95 -7.20,-23.40"/>
    </edge>
    <edge id=":b2_19" function="internal">
        <lane id=":b2_19_0" index="0" disallow="pedestrian" speed="3.65" length="3.23" shape="0.80,-31.00 0.00,-30.60 -0.80,-31.00 -1.60,-32.20"/>
    </edge>
    <edge id=":b2_12" function="internal">
        <lane id=":b2_12_0" index="0" disallow="pedestrian" speed="6.51" length="9.03" shape="-7.20,-26.60 -4.75,-26.95 -3.00,-28.00 -1.95,-29.75 -1.60,-32.20"/>
    </edge>
    <edge id=":b2_13" function="internal">
        <lane id=":b2_13_0" index="0" disallow="pedestrian" speed="13.89" length="14.40" shape="-7.20,-26.60 7.20,-26.60"/>
    </edge>
    <edge id=":b2_14" function="internal">
        <lane id=":b2_14_0" index="0" disallow="pedestrian" speed="8.00" length="14.19" shape="-7.20,-26.60 -3.35,-26.05 -0.60,-24.40 1.05,-21.65 1.60,-17.80"/>
    </edge>
    <edge id=":b2_15" function="internal">
        <lane id=":b2_15_0" index="0" disallow="pedestrian" speed="3.65" length="4.67" shape="-7.20,-26.60 -6.00,-25.80 -5.60,-25.00 -6.00,-24.20 -7.20,-23.40"/>
    </edge>
    <edge id=":b2_w0" function="walkingarea">
        <lane id=":b2_w0_0" index="0" allow="pedestrian" speed="2.78" length="4.24" width="2.00" shape="-7.20,-21.80 -7.20,-19.80 -5.20,-17.80 -3.20,-17.80 -3.31,-19.02 -3.64,-20.02 -4.20,-20.80 -4.98,-21.36 -5.98,-21.69"/>
    </edge>
    <edge id=":b2_w1" function="walkingarea">
        <lane id=":b2_w1_0" index="0" allow="pedestrian" speed="2.78" length="4.24" width="2.00" shape="3.20,-17.80 5.20,-17.80 7.20,-19.80 7.20,-21.80 5.98,-21.69 4.98,-21.36 4.20,-20.80 3.64,-20.02 3.31,-19.02"/>
    </edge>
    <edge id=":b2_w2" function="walkingarea">
        <lane id=":b2_w2_0" index="0" allow="pedestrian" speed="2.78" length="4.24" width="2.00" shape="7.20,-28.20 7.20,-30.20 5.20,-32.20 3.20,-32.20 3.31,-30.98 3.64,-29.98 4.20,-29.20 4.98,-28.64 5.98,-28.31"/>
    </edge>
    <edge id=":b2_w3" function="walkingarea">
        <lane id=":b2_w3_0" index="0" allow="pedestrian" speed="2.78" length="4.24" width="2.00" shape="-3.20,-32.20 -5.20,-32.20 -7.20,-30.20 -7.20,-28.20 -5.98,-28.31 -4.98,-28.64 -4.20,-29.20 -3.64,-29.98 -3.31,-30.98"/>
    </edge>
    <edge id=":b3_0" function="internal">
        <lane id=":b3_0_0" index="0" disallow="pedestrian" speed="6.51" length="9.03" shape="73.40,-17.80 73.05,-20.25 72.00,-22.00 70.25,-23.05 67.80,-23.40"/>
    </edge>
    <edge id=":b3_1" function="internal">
        <lane id=":b3_1_0" index="0" disallow="pedestrian" speed="13.89" length="14.40" shape="73.40,-17.80 73.40,-32.20"/>
    </edge>
    <edge id=":b3_2" function="internal">
        <lane id=":b3_2_0" index="0" disallow="pedestrian" speed="8.00" length="4.07" shape="73.40,-17.80 73.95,-21.65 74.04,-21.80"/>
    </edge>
    <edge id=":b3_3" function="internal">
        <lane id=":b3_3_0" index="0" disallow="pedestrian" speed="3.65" length="1.44" shape="73.40,-17.80 74.20,-19.00"/>
    </edge>
    <edge id=":b3_16" function="internal">
        <lane id=":b3_16_0" index="0" disallow="pedestrian" speed="8.00" length="10.13" shape="74.04,-21.80 75.60,-24.40 78.35,-26.05 82.20,-26.60"/>
    </edge>
    <edge id=":b3_17" function="internal">
        <lane id=":b3_17_0" index="0" disallow="pedestrian" speed="3.65" length="3.23" shape="74.20,-19.00 75.00,-19.40 75.80,-19.00 76.60,-17.80"/>
    </edge>
    <edge id=":b3_4" function="internal">
        <lane id=":b3_4_0" index="0" disallow="pedestrian" speed="6.51" length="9.03" shape="82.20,-23.40 79.75,-23.05 78.00,-22.00 76.95,-20.25 76.60,-17.80"/>
    </edge>
    <edge id=":b3_5" function="internal">
        <lane id=":b3_5_0" index="0" disallow="pedestrian" speed="13.89" length="14.40" shape="82.20,-23.40 67.80,-23.40"/>
    </edge>
    <edge id=":b3_6" function="internal">
        <lane id=":b3_6_0" index="0" disallow="pedestrian" speed="8.00" length="14.19" shape="82.20,-23.40 78.35,-23.95 75.60,-25.60 73.95,-28.35 73.40,-32.20"/>
    </edge>
    <edge id=":b3_7" function="internal">
        <lane id=":b3_7_0" index="0" disallow="pedestrian" speed="3.65" length="4.67" shape="82.20,-23.40 81.00,-24.20 80.60,-25.00 81.00,-25.80 82.20,-26.60"/>
    </edge>
    <edge id=":b3_8" function="internal">
        <lane id=":b3_8_0" index="0" disallow="pedestrian" speed="6.51" length="9.03" shape="76.60,-32.20 76.95,-29.75 78.00,-28.00 79.75,-26.95 82.20,-26.60"/>
    </edge>
    <edge id=":b3_9" function="internal">
        <lane id=":b3_9_0" index="0" disallow="pedestrian" speed="13.89" length="14.40" shape="76.60,-32.20 76.60,-17.80"/>
    </edge>
    <edge id=":b3_10" function="internal">
        <lane id=":b3_10_0" index="0" disallow="pedestrian" speed="8.00" length="4.07" shape="76.60,-32.20 76.05,-28.35 75.96,-28.20"/>
    </edge>
    <edge id=":b3_11" function="internal">
        <lane id=":b3_11_0" index="0" disallow="pedestrian" speed="3.65" length="1.44" shape="76.60,-32.20 75.80,-31.00"/>
    </edge>
    <edge id=":b3_18" function="internal">
        <lane id=":b3_18_0" index="0" disallow="pedestrian" speed="8.00" length="10.13" shape="75.96,-28.20 74.40,-25.60 71.65,-23.95 67.80,-23.40"/>
    </edge>
    <edge id=":b3_19" function="internal">
        <lane id=":b3_19_0" index="0" disallow="pedestrian" speed="3.65" length="3.23" shape="75.80,-31.00 75.00,-30.60 74.20,-31.00 73.40,-32.20"/>
    </edge>
    <edge id=":b3_12" function="internal">
        <lane id=":b3_12_0" index="0" disallow="pedestrian" speed="6.51" length="9.03" shape="67.80,-26.60 70.25,-26.95 72.00,-28.00 73.05,-29.75 73.40,-32.20"/>
    </edge>
    <edge id=":b3_13" function="internal">
        <lane id=":b3_13_0" index="0" disallow="pedestrian" speed="13.89" length="14.40" shape="67.80,-26.60 82.20,-26.60"/>
    </edge>
    <edge id=":b3_14" function="internal">
        <lane id=":b3_14_0" index="0" disallow="pedestrian" speed="8.00" length="14.19" shape="67.80,-26.60 71.65,-26.05 74.40,-24.40 76.05,-21.65 76.60,-17.80"/>
    </edge>
    <edge id=":b3_15" function="internal">
        <lane id=":b3_15_0" index="0" disallow="pedestrian" speed="3.65" length="4.67" shape="67.80,-26.60 69.00,-25.80 69.40,-25.00 69.00,-24.20 67.80,-23.40"/>
    </edge>
    <edge id=":b3_w0" function="walkingarea">
        <lane id=":b3_w0_0" index="0" allow="pedestrian" speed="2.78" length="4.24" width="2.00" shape="67.80,-21.80 67.80,-19.80 69.80,-17.80 71.80,-17.80 71.69,-19.02 71.36,-20.02 70.80,-20.80 70.02,-21.36 69.02,-21.69"/>
    </edge>
    <edge id=":b3_w1" function="walkingarea">
        <lane id=":b3_w1_0" index="0" allow="pedestrian" speed="2.78" length="4.24" width="2.00" shape="78.20,-17.80 80.20,-17.80 82.20,-19.80 82.20,-21.80 80.98,-21.69 79.98,-21.36 79.20,-20.80 78.64,-20.02 78.31,-19.02"/>
    </edge>
    <edge id=":b3_w2" function="walkingarea">
        <lane id=":b3_w2_0" index="0" allow="pedestrian" speed="2.78" length="4.24" width="2.00" shape="82.20,-28.20 82.20,-30.20 80.20,-32.20 78.20,-32.20 78.31,-30.98 78.64,-29.98 79.20,-29.20 79.98,-28.64 80.98,-28.31"/>
    </edge>
    <edge id=":b3_w3" function="walkingarea">
        <lane id=":b3_w3_0" index="0" allow="pedestrian" speed="2.78" length="4.24" width="2.00" shape="71.80,-32.20 69.80,-32.20 67.80,-30.20 67.80,-28.20 69.02,-28.31 70.02,-28.64 70.80,-29.20 71.36,-29.98 71.69,-30.98"/>
    </edge>
    <edge id=":b4_0" function="internal">
        <lane id=":b4_0_0" index="0" disallow="pedestrian" speed="6.51" length="9.03" shape="148.40,-17.80 148.05,-20.25 147.00,-22.00 145.25,-23.05 142.80,-23.40"/>
    </edge>
    <edge id=":b4_1" function="internal">
        <lane id=":b4_1_0" index="0" disallow="pedestrian" speed="13.89" length="14.40" shape="148.40,-17.80 148.40,-32.20"/>
    </edge>
    <edge id=":b4_2" function="internal">
        <lane id=":b4_2_0" index="0" disallow="pedestrian" speed="3.65" length="1.44" shape="148.40,-17.80 149.20,-19.00"/>
    </edge>
    <edge id=":b4_9" function="internal">
        <lane id=":b4_9_0" index="0" disallow="pedestrian" speed="3.65" length="3.23" shape="149.20,-19.00 150.00,-19.40 150.80,-19.00 151.60,-17.80"/>
    </edge>
    <edge id=":b4_3" function="internal">
        <lane id=":b4_3_0" index="0" disallow="pedestrian" speed="13.89" length="14.40" shape="151.60,-32.20 151.60,-17.80"/>
    </edge>
    <edge id=":b4_4" function="internal">
        <lane id=":b4_4_0" index="0" disallow="pedestrian" speed="8.00" length="4.07" shape="151.60,-32.20 151.05,-28.35 150.96,-28.20"/>
    </edge>
    <edge id=":b4_5" function="internal">
        <lane id=":b4_5_0" index="0" disallow="pedestrian" speed="3.65" length="1.44" shape="151.60,-32.20 150.80,-31.00"/>
    </edge>
    <edge id=":b4_10" function="internal">
        <lane id=":b4_10_0" index="0" disallow="pedestrian" speed="8.00" length="10.13" shape="150.96,-28.20 149.40,-25.60 146.65,-23.95 142.80,-23.40"/>
    </edge>
    <edge id=":b4_11" function="internal">
        <lane id=":b4_11_0" index="0" disallow="pedestrian" speed="3.65" length="3.23" shape="150.80,-31.00 150.00,-30.60 149.20,-31.00 148.40,-32.20"/>
    </edge>
    <edge id=":b4_6" function="internal">
        <lane id=":b4_6_0" index="0" disallow="pedestrian" speed="6.51" length="9.03" shape="142.80,-26.60 145.25,-26.95 147.00,-28.00 148.05,-29.75 148.40,-32.20"/>
    </edge>
    <edge id=":b4_7" function="internal">
        <lane id=":b4_7_0" index="0" disallow="pedestrian" speed="8.00" length="14.19" shape="142.80,-26.60 146.65,-26.05 149.40,-24.40 151.05,-21.65 151.60,-17.80"/>
    </edge>
    <edge id=":b4_8" function="internal">
        <lane id=":b4_8_0" index="0" disallow="pedestrian" speed="3.65" length="4.67" shape="142.80,-26.60 144.00,-25.80 144.40,-25.00 144.00,-24.20 142.80,-23.40"/>
    </edge>
    <edge id=":b4_w0" function="walkingarea">