<?xml version="1.0" encoding="UTF-8"?>

<!-- generated on 2023-09-07 11:29:33 by Eclipse SUMO netedit Version 1.18.0
-->

<additional xmlns:xsi="http://www.w3.org/2001/XMLSchema-instance" xsi:noNamespaceSchemaLocation="http://sumo.dlr.de/xsd/additional_file.xsd">
    <!-- StoppingPlaces -->
    <busStop id="bs_0" lane="15e_1" startPos="44.35" endPos="54.35" lines="64">
    <param key="lines" value="64"/>
    </busStop>
    <busStop id="bs_1" lane="24e_1" startPos="49.87" endPos="59.87" lines="64">
    <param key="lines" value="64"/>
    </busStop>
    <parkingArea id="pa10e" lane="10e_1" roadsideCapacity="2" length="5.00"/>
    <parkingArea id="pa10w" lane="10w_1" roadsideCapacity="2" length="5.00"/>
    <!-- Other additionals -->
    <rerouter id="pa10e" edges="10e" pos="144.00,-32.80">
        <interval begin="0.00" end="86400.00">
            <parkingAreaReroute id="pa10e" visible="1"/>
            <parkingAreaReroute id="pa10w" visible="1"/>
        </interval>
    </rerouter>
    <rerouter id="pa10w" edges="10w" pos="81.00,-17.20">
        <interval begin="0.00" end="86400.00">
            <parkingAreaReroute id="pa10w" visible="1"/>
            <parkingAreaReroute id="pa10e" visible="1"/>
        </interval>
    </rerouter>
</additional>
