<?xml version="1.0" encoding="UTF-8"?>

<!-- generated on 2024-06-03 16:08:34.153262 by osmWebWizard.py UNKNOWN
<configuration>
    <net-file value="/usr/share/sumo/tools/2024-06-03-16-07-59/osm.net.xml.gz"/>
    <output-trip-file value="/usr/share/sumo/tools/2024-06-03-16-07-59/osm.bus.trips.xml"/>
    <route-file value="/usr/share/sumo/tools/2024-06-03-16-07-59/osm.bus.rou.xml"/>
    <prefix value="bus"/>
    <trip-attributes value="departLane=&quot;best&quot;"/>
    <fringe-start-attributes value="departSpeed=&quot;max&quot;"/>
    <vehicle-class value="bus"/>
    <fringe-factor value="5"/>
    <vclass value="bus"/>
    <via-edge-types value="highway.motorway,highway.motorway_link,highway.trunk_link,highway.primary_link,highway.secondary_link,highway.tertiary_link"/>
    <min-distance value="600.0"/>
    <min-distance.fringe value="10.0"/>
    <remove-loops value="True"/>
    <validate value="True"/>
    <insertion-density value="4.0"/>
</configuration>
-->

<!-- generated on 2024-06-03 16:08:30 by Eclipse SUMO duarouter Version 1.20.0
<configuration xmlns:xsi="http://www.w3.org/2001/XMLSchema-instance" xsi:noNamespaceSchemaLocation="http://sumo.dlr.de/xsd/duarouterConfiguration.xsd">

    <input>
        <net-file value="/usr/share/sumo/tools/2024-06-03-16-07-59/osm.net.xml.gz"/>
        <route-files value="/usr/share/sumo/tools/2024-06-03-16-07-59/osm.bus.trips.xml"/>
    </input>

    <output>
        <output-file value="/usr/share/sumo/tools/2024-06-03-16-07-59/osm.bus.trips.xml.tmp"/>
        <alternatives-output value="NUL"/>
        <write-trips value="true"/>
    </output>

    <processing>
        <remove-loops value="true"/>
    </processing>

    <time>
        <begin value="0.0"/>
        <end value="3600.0"/>
    </time>

    <report>
        <no-warnings value="true"/>
        <ignore-errors value="true"/>
        <no-step-log value="true"/>
    </report>

</configuration>
-->

<routes xmlns:xsi="http://www.w3.org/2001/XMLSchema-instance" xsi:noNamespaceSchemaLocation="http://sumo.dlr.de/xsd/routes_file.xsd">
    <vType id="bus_bus" vClass="bus"/>
    <trip id="bus0" type="bus_bus" depart="0.00" departLane="best" from="541980625" to="121643226"/>
    <trip id="bus1" type="bus_bus" depart="1.53" departLane="best" from="-77434516#5" to="6022294#0"/>
    <trip id="bus2" type="bus_bus" depart="3.05" departLane="best" from="6009242#7" to="6003752#0"/>
    <trip id="bus3" type="bus_bus" depart="4.58" departLane="best" from="868584168#1" to="-289676217#7"/>
    <trip id="bus4" type="bus_bus" depart="6.10" departLane="best" from="130536493#2" to="127010720#11"/>
    <trip id="bus5" type="bus_bus" depart="7.63" departLane="best" from="6017340#2" to="286998354#2"/>
    <trip id="bus6" type="bus_bus" depart="9.16" departLane="best" from="-11998022#10" to="-6014458#0"/>
    <trip id="bus7" type="bus_bus" depart="10.68" departLane="best" from="546360672#1" to="422216750#7"/>
    <trip id="bus9" type="bus_bus" depart="13.73" departLane="best" from="6022294#10" to="-107438763#5"/>
    <trip id="bus10" type="bus_bus" depart="15.26" departLane="best" from="6021604#1" to="6006087#6"/>
    <trip id="bus11" type="bus_bus" depart="16.79" departLane="best" from="98289449#7" to="-6002829#0"/>
    <trip id="bus12" type="bus_bus" depart="18.31" departLane="best" from="-289676801#2" to="-342209181#7"/>
    <trip id="bus13" type="bus_bus" depart="19.84" departLane="best" from="6021654#0" to="-6010107#2"/>
    <trip id="bus14" type="bus_bus" depart="21.37" departLane="best" from="335286762#0" to="98289462#2"/>
    <trip id="bus15" type="bus_bus" depart="22.89" departLane="best" from="107445207#2" to="424998831#0"/>
    <trip id="bus16" type="bus_bus" depart="24.42" departLane="best" from="70990317#1" to="532779838#19"/>
    <trip id="bus17" type="bus_bus" depart="25.94" departLane="best" from="-772425514#2" to="463787634#1"/>
    <trip id="bus18" type="bus_bus" depart="27.47" departLane="best" from="6005527#2" to="188164085#2"/>
    <trip id="bus19" type="bus_bus" depart="29.00" departLane="best" from="-6019500#17" to="-952023895#0"/>
    <trip id="bus20" type="bus_bus" depart="30.52" departLane="best" from="-225367481#1" to="-653123344#9"/>
    <trip id="bus21" type="bus_bus" depart="32.05" departLane="best" from="-337486038#1" to="947383735#5"/>
    <trip id="bus22" type="bus_bus" depart="33.57" departLane="best" from="539679016#2" to="111075869#10"/>
    <trip id="bus23" type="bus_bus" depart="35.10" departLane="best" from="1063788205" to="-6017961#1"/>
    <trip id="bus24" type="bus_bus" depart="36.63" departLane="best" from="544005366#8" to="501213161#5"/>
    <trip id="bus25" type="bus_bus" depart="38.15" departLane="best" from="-6003946#2" to="6010080#8"/>
    <trip id="bus26" type="bus_bus" depart="39.68" departLane="best" from="-6002739#10" to="116534592#0"/>
    <trip id="bus27" type="bus_bus" depart="41.20" departLane="best" from="-98289577#1" to="547782540#1"/>
    <trip id="bus28" type="bus_bus" depart="42.73" departLane="best" from="410712718#9" to="6004438#7"/>
    <trip id="bus29" type="bus_bus" depart="44.26" departLane="best" from="733176793#6" to="-6017828#6"/>
    <trip id="bus30" type="bus_bus" depart="45.78" departLane="best" from="-6019572#0" to="-1289127441"/>
    <trip id="bus31" type="bus_bus" depart="47.31" departLane="best" from="6014479#7" to="98055830#0"/>
    <trip id="bus32" type="bus_bus" depart="48.84" departLane="best" from="82577246#11" to="-98166058#8"/>
    <trip id="bus33" type="bus_bus" depart="50.36" departLane="best" from="-547782550#1" to="127009906#11"/>
    <trip id="bus34" type="bus_bus" depart="51.89" departLane="best" from="949167911#1" to="195773997"/>
    <trip id="bus35" type="bus_bus" depart="53.41" departLane="best" departSpeed="max" from="-75359777" to="-752527320#0"/>
    <trip id="bus36" type="bus_bus" depart="54.94" departLane="best" from="422243513#12" to="-80318082"/>
    <trip id="bus37" type="bus_bus" depart="56.47" departLane="best" from="-451773855#1" to="943903755"/>
    <trip id="bus38" type="bus_bus" depart="57.99" departLane="best" from="-116534600#3" to="-6021153#11"/>
    <trip id="bus39" type="bus_bus" depart="59.52" departLane="best" departSpeed="max" from="-287654134#4" to="188165140#1"/>
    <trip id="bus40" type="bus_bus" depart="61.04" departLane="best" from="-391234798" to="542335278#2"/>
    <trip id="bus41" type="bus_bus" depart="62.57" departLane="best" from="6018657#3" to="187354100#2"/>
    <trip id="bus42" type="bus_bus" depart="64.10" departLane="best" from="-196464292#0" to="11877190"/>
    <trip id="bus43" type="bus_bus" depart="65.62" departLane="best" from="98289636#1" to="364597928#12"/>
    <trip id="bus44" type="bus_bus" depart="67.15" departLane="best" from="98170420#2" to="77434520#2"/>
    <trip id="bus45" type="bus_bus" depart="68.67" departLane="best" from="-109483242#8" to="6008708#3"/>
    <trip id="bus46" type="bus_bus" depart="70.20" departLane="best" from="-6003104#8" to="391293978#9"/>
    <trip id="bus47" type="bus_bus" depart="71.73" departLane="best" from="-765165381#1" to="547782550#1"/>
    <trip id="bus48" type="bus_bus" depart="73.25" departLane="best" from="-391294610#1" to="188783415#5"/>
    <trip id="bus49" type="bus_bus" depart="74.78" departLane="best" from="82576731#0" to="-80318085#10"/>
    <trip id="bus50" type="bus_bus" depart="76.31" departLane="best" from="-216240443#1" to="-6008553#0"/>
    <trip id="bus51" type="bus_bus" depart="77.83" departLane="best" from="949167902#1" to="82577246#15"/>
    <trip id="bus52" type="bus_bus" depart="79.36" departLane="best" from="-947383735#2" to="547732826#1"/>
    <trip id="bus53" type="bus_bus" depart="80.88" departLane="best" from="49639167#0" to="-6002739#1"/>
    <trip id="bus54" type="bus_bus" depart="82.41" departLane="best" from="6013001#1" to="402053896#1"/>
    <trip id="bus56" type="bus_bus" depart="85.46" departLane="best" from="1026621911" to="-98289531#4"/>
    <trip id="bus57" type="bus_bus" depart="86.99" departLane="best" from="-115239644#6" to="988207131#4"/>
    <trip id="bus58" type="bus_bus" depart="88.51" departLane="best" from="82577262#1" to="72835940#1"/>
    <trip id="bus59" type="bus_bus" depart="90.04" departLane="best" departSpeed="max" from="-949376647#3" to="192574249#3"/>
    <trip id="bus60" type="bus_bus" depart="91.57" departLane="best" from="82577252#0" to="98102321#1"/>
    <trip id="bus61" type="bus_bus" depart="93.09" departLane="best" from="-261717528#0" to="-226669416#4"/>
    <trip id="bus62" type="bus_bus" depart="94.62" departLane="best" from="-196920693#22" to="6014366#1"/>
    <trip id="bus63" type="bus_bus" depart="96.14" departLane="best" departSpeed="max" from="6013441#0" to="-498401536#1"/>
    <trip id="bus64" type="bus_bus" depart="97.67" departLane="best" from="195640791#2" to="424996926#1"/>
    <trip id="bus65" type="bus_bus" depart="99.20" departLane="best" departSpeed="max" from="-75359777" to="82577262#1"/>
    <trip id="bus66" type="bus_bus" depart="100.72" departLane="best" from="130576352#2" to="-6018657#5"/>
    <trip id="bus67" type="bus_bus" depart="102.25" departLane="best" from="338241504#2" to="6010130#1"/>
    <trip id="bus68" type="bus_bus" depart="103.78" departLane="best" from="-6012722#1" to="-98144278#0"/>
    <trip id="bus69" type="bus_bus" depart="105.30" departLane="best" departSpeed="max" from="98289629#0" to="548438643#1"/>
    <trip id="bus70" type="bus_bus" depart="106.83" departLane="best" from="152761853" to="326116183#1"/>
    <trip id="bus71" type="bus_bus" depart="108.35" departLane="best" from="-425194775#1" to="6022636#1"/>
    <trip id="bus72" type="bus_bus" depart="109.88" departLane="best" from="-98289427#1" to="47994360#0"/>
    <trip id="bus73" type="bus_bus" depart="111.41" departLane="best" from="-6020606#1" to="-6021192#5"/>
    <trip id="bus74" type="bus_bus" depart="112.93" departLane="best" from="-197613651#0" to="543564866#1"/>
    <trip id="bus75" type="bus_bus" depart="114.46" departLane="best" from="6019500#9" to="948338677#1"/>
    <trip id="bus76" type="bus_bus" depart="115.98" departLane="best" from="77083564#1" to="-197613675#1"/>
    <trip id="bus77" type="bus_bus" depart="117.51" departLane="best" from="-6022294#9" to="6003104#3"/>
    <trip id="bus78" type="bus_bus" depart="119.04" departLane="best" from="-6015362#6" to="501458169"/>
    <trip id="bus79" type="bus_bus" depart="120.56" departLane="best" from="967909726#3" to="452789362#1"/>
    <trip id="bus80" type="bus_bus" depart="122.09" departLane="best" from="195059446#1" to="6019500#11"/>
    <trip id="bus81" type="bus_bus" depart="123.61" departLane="best" from="-305419560#2" to="499207544#1"/>
    <trip id="bus82" type="bus_bus" depart="125.14" departLane="best" from="130591274#3" to="196920693#30"/>
    <trip id="bus83" type="bus_bus" depart="126.67" departLane="best" from="6008126" to="6003357#1"/>
    <trip id="bus84" type="bus_bus" depart="128.19" departLane="best" from="-98289547#0" to="-361077107#0"/>
    <trip id="bus85" type="bus_bus" depart="129.72" departLane="best" from="11998000#2" to="1037910399#2"/>
    <trip id="bus86" type="bus_bus" depart="131.24" departLane="best" from="-772425514#2" to="-75926229#3"/>
    <trip id="bus87" type="bus_bus" depart="132.77" departLane="best" departSpeed="max" from="-6008804" to="192572997#1"/>
    <trip id="bus88" type="bus_bus" depart="134.30" departLane="best" from="130536493#1" to="947729522#2"/>
    <trip id="bus89" type="bus_bus" depart="135.82" departLane="best" from="-698042617#3" to="952026781#0"/>
    <trip id="bus90" type="bus_bus" depart="137.35" departLane="best" from="-187354107#14" to="77434522#3"/>
    <trip id="bus91" type="bus_bus" depart="138.88" departLane="best" from="391209859#4" to="188969410#0"/>
    <trip id="bus92" type="bus_bus" depart="140.40" departLane="best" from="997422472#0" to="733176793#3"/>
    <trip id="bus93" type="bus_bus" depart="141.93" departLane="best" from="-26953224" to="952661989#1"/>
    <trip id="bus94" type="bus_bus" depart="143.45" departLane="best" from="752527320#1" to="-6006027#1"/>
    <trip id="bus95" type="bus_bus" depart="144.98" departLane="best" from="-196920693#8" to="6019020#1"/>
    <trip id="bus96" type="bus_bus" depart="146.51" departLane="best" from="1169306680#1" to="-193615075#2"/>
    <trip id="bus97" type="bus_bus" depart="148.03" departLane="best" from="107445211#4" to="98289552#18"/>
    <trip id="bus98" type="bus_bus" depart="149.56" departLane="best" departSpeed="max" from="-75359777" to="6019419#0"/>
    <trip id="bus99" type="bus_bus" depart="151.08" departLane="best" from="188783441#3" to="187354102#1"/>
    <trip id="bus100" type="bus_bus" depart="152.61" departLane="best" from="98110686#4" to="98289643#1"/>
    <trip id="bus101" type="bus_bus" depart="154.14" departLane="best" from="-410712716#0" to="6008443#1"/>
    <trip id="bus102" type="bus_bus" depart="155.66" departLane="best" from="-548218074#12" to="972308868#1"/>
    <trip id="bus103" type="bus_bus" depart="157.19" departLane="best" from="98166071#2" to="46582008#2"/>
    <trip id="bus104" type="bus_bus" depart="158.71" departLane="best" from="357026441#2" to="6012851#1"/>
    <trip id="bus105" type="bus_bus" depart="160.24" departLane="best" from="-191442412#4" to="47987644#4"/>
    <trip id="bus106" type="bus_bus" depart="161.77" departLane="best" from="226669416#4" to="77083564#1"/>
    <trip id="bus107" type="bus_bus" depart="163.29" departLane="best" from="-586050815#1" to="-98144278#0"/>
    <trip id="bus108" type="bus_bus" depart="164.82" departLane="best" from="-226669416#1" to="6011076#0"/>
    <trip id="bus109" type="bus_bus" depart="166.35" departLane="best" from="468184520#0" to="6003492#5"/>
    <trip id="bus110" type="bus_bus" depart="167.87" departLane="best" from="-6021654#1" to="465787388#2"/>
    <trip id="bus111" type="bus_bus" depart="169.40" departLane="best" from="46582175#4" to="532779838#9"/>
    <trip id="bus112" type="bus_bus" depart="170.92" departLane="best" departSpeed="max" from="127070309#0" to="47987644#0"/>
    <trip id="bus113" type="bus_bus" depart="172.45" departLane="best" from="-287654134#2" to="974844861#0"/>
    <trip id="bus114" type="bus_bus" depart="173.98" departLane="best" from="-6013463#2" to="6008040#8"/>
    <trip id="bus115" type="bus_bus" depart="175.50" departLane="best" from="-6022641#3" to="127009906#3"/>
    <trip id="bus116" type="bus_bus" depart="177.03" departLane="best" from="5995822#1" to="-98040514#0"/>
    <trip id="bus117" type="bus_bus" depart="178.55" departLane="best" from="-197613665#0" to="-195640816#0"/>
    <trip id="bus118" type="bus_bus" depart="180.08" departLane="best" from="988207131#1" to="98289666#0"/>
    <trip id="bus119" type="bus_bus" depart="181.61" departLane="best" departSpeed="max" from="-197613665#9" to="-6018750#7"/>
    <trip id="bus120" type="bus_bus" depart="183.13" departLane="best" departSpeed="max" from="-75359777" to="972323833#3"/>
    <trip id="bus121" type="bus_bus" depart="184.66" departLane="best" from="834330210#1" to="-853631437"/>
    <trip id="bus122" type="bus_bus" depart="186.18" departLane="best" from="1063133157#1" to="-6003188#4"/>
    <trip id="bus123" type="bus_bus" depart="187.71" departLane="best" from="72832557#4" to="6006474#3"/>
    <trip id="bus124" type="bus_bus" depart="189.24" departLane="best" from="49664168#2" to="98289553#5"/>
    <trip id="bus125" type="bus_bus" depart="190.76" departLane="best" departSpeed="max" from="547763504" to="-107445235#1"/>
    <trip id="bus126" type="bus_bus" depart="192.29" departLane="best" from="-6023543#0" to="98040489#0"/>
    <trip id="bus127" type="bus_bus" depart="193.82" departLane="best" from="-548417302#2" to="98040495#2"/>
    <trip id="bus128" type="bus_bus" depart="195.34" departLane="best" from="-49639286#0" to="-450298550"/>
    <trip id="bus130" type="bus_bus" depart="198.39" departLane="best" from="-773568574#3" to="500300318#1"/>
    <trip id="bus131" type="bus_bus" depart="199.92" departLane="best" from="6006517#0" to="-6015600#7"/>
    <trip id="bus132" type="bus_bus" depart="201.45" departLane="best" from="532779838#4" to="-80318085#5"/>
    <trip id="bus133" type="bus_bus" depart="202.97" departLane="best" from="-197613665#3" to="948338677#1"/>
    <trip id="bus134" type="bus_bus" depart="204.50" departLane="best" from="73920722#0" to="-324563820#0"/>
    <trip id="bus135" type="bus_bus" depart="206.02" departLane="best" from="130591274#3" to="93172476#2"/>
    <trip id="bus136" type="bus_bus" depart="207.55" departLane="best" departSpeed="max" from="-104328200#3" to="6015954#4"/>
    <trip id="bus137" type="bus_bus" depart="209.08" departLane="best" from="-539742505#1" to="799543191#0"/>
    <trip id="bus138" type="bus_bus" depart="210.60" departLane="best" from="6010107#1" to="424997835"/>
    <trip id="bus139" type="bus_bus" depart="212.13" departLane="best" from="132521330#0" to="109483242#0"/>
    <trip id="bus140" type="bus_bus" depart="213.65" departLane="best" from="-198131259#2" to="86092311#4"/>
    <trip id="bus141" type="bus_bus" depart="215.18" departLane="best" from="-947383735#5" to="-422220871#9"/>
    <trip id="bus142" type="bus_bus" depart="216.71" departLane="best" from="72832583#2" to="476164286#1"/>
    <trip id="bus143" type="bus_bus" depart="218.23" departLane="best" from="6017289#1" to="-49667899#2"/>
    <trip id="bus144" type="bus_bus" depart="219.76" departLane="best" from="-949376650#0" to="947729522#3"/>
    <trip id="bus145" type="bus_bus" depart="221.28" departLane="best" from="-6019500#4" to="-77434520#1"/>
    <trip id="bus146" type="bus_bus" depart="222.81" departLane="best" from="93171915#1" to="-6018107#12"/>
    <trip id="bus147" type="bus_bus" depart="224.34" departLane="best" departSpeed="max" from="-698042617#10" to="-391292981#1"/>
    <trip id="bus148" type="bus_bus" depart="225.86" departLane="best" from="6015600#13" to="86092338#3"/>
    <trip id="bus149" type="bus_bus" depart="227.39" departLane="best" from="-11998018#13" to="539679016#3"/>
    <trip id="bus150" type="bus_bus" depart="228.92" departLane="best" from="-548218073#1" to="962616109#0"/>
    <trip id="bus151" type="bus_bus" depart="230.44" departLane="best" from="-773568579#0" to="98289475#5"/>
    <trip id="bus152" type="bus_bus" depart="231.97" departLane="best" from="-6022636#1" to="-859580820#1"/>
    <trip id="bus153" type="bus_bus" depart="233.49" departLane="best" from="-11998018#10" to="6011343#19"/>
    <trip id="bus154" type="bus_bus" depart="235.02" departLane="best" from="-98144300#0" to="967909726#5"/>
    <trip id="bus155" type="bus_bus" depart="236.55" departLane="best" from="6020993#11" to="77438563#1"/>
    <trip id="bus156" type="bus_bus" depart="238.07" departLane="best" from="6022636#1" to="-83513119#1"/>
    <trip id="bus157" type="bus_bus" depart="239.60" departLane="best" from="-6017854#1" to="422216750#10"/>
    <trip id="bus158" type="bus_bus" depart="241.12" departLane="best" from="777914547#1" to="773636597#1"/>
    <trip id="bus159" type="bus_bus" depart="242.65" departLane="best" from="191442413#1" to="98106788#1"/>
    <trip id="bus160" type="bus_bus" depart="244.18" departLane="best" from="6019500#11" to="-6023488#5"/>
    <trip id="bus161" type="bus_bus" depart="245.70" departLane="best" from="-11998007#21" to="-6013121"/>
    <trip id="bus162" type="bus_bus" depart="247.23" departLane="best" from="-98110680#0" to="77438564#0"/>
    <trip id="bus163" type="bus_bus" depart="248.75" departLane="best" from="98156387#2" to="-947732346#2"/>
    <trip id="bus164" type="bus_bus" depart="250.28" departLane="best" from="542149898-AddedOnRampEdge" to="127070297#1"/>
    <trip id="bus165" type="bus_bus" depart="251.81" departLane="best" from="-98289514#1" to="391293978#13"/>
    <trip id="bus166" type="bus_bus" depart="253.33" departLane="best" from="-98166110#0" to="-6008535#0"/>
    <trip id="bus167" type="bus_bus" depart="254.86" departLane="best" from="98144190#2" to="-82577246#17"/>
    <trip id="bus168" type="bus_bus" depart="256.39" departLane="best" from="-373839724#3" to="188783415#2"/>
    <trip id="bus169" type="bus_bus" depart="257.91" departLane="best" from="6008040#2" to="-98166058#14"/>
    <trip id="bus170" type="bus_bus" depart="259.44" departLane="best" from="484627653" to="305419556#0"/>
    <trip id="bus171" type="bus_bus" depart="260.96" departLane="best" from="-109485094" to="457526185#1"/>
    <trip id="bus172" type="bus_bus" depart="262.49" departLane="best" from="72832557#7" to="-6007328#1"/>
    <trip id="bus173" type="bus_bus" depart="264.02" departLane="best" from="338084067#1" to="6008535#1"/>
    <trip id="bus174" type="bus_bus" depart="265.54" departLane="best" from="6010130#4" to="6003125#9"/>
    <trip id="bus175" type="bus_bus" depart="267.07" departLane="best" from="-1039317058#9" to="-197613671"/>
    <trip id="bus176" type="bus_bus" depart="268.59" departLane="best" from="55347480#2" to="98289623#0"/>
    <trip id="bus177" type="bus_bus" depart="270.12" departLane="best" from="-952026784#1" to="75926231"/>
    <trip id="bus178" type="bus_bus" depart="271.65" departLane="best" from="6007181#15" to="-98040515#1"/>
    <trip id="bus179" type="bus_bus" depart="273.17" departLane="best" from="949404863#1" to="132521330#3"/>
    <trip id="bus180" type="bus_bus" depart="274.70" departLane="best" from="11997995#4" to="95911555#2"/>
    <trip id="bus181" type="bus_bus" depart="276.22" departLane="best" from="-455266213#3" to="181701097#4"/>
    <trip id="bus182" type="bus_bus" depart="277.75" departLane="best" from="-977368055" to="6003831#4"/>
    <trip id="bus183" type="bus_bus" depart="279.28" departLane="best" from="938697486" to="522355071#2"/>
    <trip id="bus184" type="bus_bus" depart="280.80" departLane="best" from="-1017844043#0" to="949376651#0"/>
    <trip id="bus185" type="bus_bus" depart="282.33" departLane="best" from="132521459#1" to="466279253#7"/>
    <trip id="bus186" type="bus_bus" depart="283.86" departLane="best" from="547782542#1" to="196920675#1"/>
    <trip id="bus187" type="bus_bus" depart="285.38" departLane="best" from="187354102#7" to="-6018846#4"/>
    <trip id="bus188" type="bus_bus" depart="286.91" departLane="best" from="195059453#1" to="947732349#1"/>
    <trip id="bus189" type="bus_bus" depart="288.43" departLane="best" from="6019500#4" to="-6006353#6"/>
    <trip id="bus190" type="bus_bus" depart="289.96" departLane="best" from="-24774511#4" to="324563820#5"/>
    <trip id="bus191" type="bus_bus" depart="291.49" departLane="best" from="53143330#2" to="1014407069#1"/>
    <trip id="bus192" type="bus_bus" depart="293.01" departLane="best" from="6023719#2" to="6013002#2"/>
    <trip id="bus193" type="bus_bus" depart="294.54" departLane="best" from="5997780#0" to="-6022636#1"/>
    <trip id="bus194" type="bus_bus" depart="296.06" departLane="best" departSpeed="max" from="6012295" to="11998022#5"/>
    <trip id="bus195" type="bus_bus" depart="297.59" departLane="best" departSpeed="max" from="-608942258" to="198870316#1"/>
    <trip id="bus196" type="bus_bus" depart="299.12" departLane="best" from="75359760" to="-201637236#0"/>
    <trip id="bus197" type="bus_bus" depart="300.64" departLane="best" from="1262841371#1" to="54240376#2"/>
    <trip id="bus198" type="bus_bus" depart="302.17" departLane="best" from="-6010168" to="6005887#2"/>
    <trip id="bus199" type="bus_bus" depart="303.69" departLane="best" from="-200877692#0" to="73920717#9"/>
    <trip id="bus200" type="bus_bus" depart="305.22" departLane="best" from="547938510#1" to="1067769869#2"/>
    <trip id="bus201" type="bus_bus" depart="306.75" departLane="best" from="6011365#3" to="-6015600#8"/>
    <trip id="bus202" type="bus_bus" depart="308.27" departLane="best" from="-364597930#4" to="187354107#4"/>
    <trip id="bus203" type="bus_bus" depart="309.80" departLane="best" from="-6005114#1" to="98117556#3"/>
    <trip id="bus204" type="bus_bus" depart="311.33" departLane="best" from="-273392975#3" to="-188783445#2"/>
    <trip id="bus205" type="bus_bus" depart="312.85" departLane="best" departSpeed="max" from="-698042617#10" to="765165381#1"/>
    <trip id="bus206" type="bus_bus" depart="314.38" departLane="best" from="188783446#3" to="6022641#4"/>
    <trip id="bus207" type="bus_bus" depart="315.90" departLane="best" from="589350956#0" to="98289569#1"/>
    <trip id="bus208" type="bus_bus" depart="317.43" departLane="best" departSpeed="max" from="470044953" to="98106798#3"/>
    <trip id="bus209" type="bus_bus" depart="318.96" departLane="best" from="861256358#5" to="512491285#1"/>
    <trip id="bus210" type="bus_bus" depart="320.48" departLane="best" from="71694377#1" to="423635499#1"/>
    <trip id="bus211" type="bus_bus" depart="322.01" departLane="best" departSpeed="max" from="91597669#0" to="-6012313#2"/>
    <trip id="bus212" type="bus_bus" depart="323.53" departLane="best" from="-195640780#6" to="77434526#2"/>
    <trip id="bus213" type="bus_bus" depart="325.06" departLane="best" from="-653123344#2" to="546694180"/>
    <trip id="bus214" type="bus_bus" depart="326.59" departLane="best" departSpeed="max" from="6013441#0" to="335304559#4"/>
    <trip id="bus215" type="bus_bus" depart="328.11" departLane="best" from="502201041#1" to="89528088#1"/>
    <trip id="bus216" type="bus_bus" depart="329.64" departLane="best" from="202502984#8" to="-949167929#1"/>
    <trip id="bus217" type="bus_bus" depart="331.16" departLane="best" from="-772594355" to="-98289465#2"/>
    <trip id="bus218" type="bus_bus" depart="332.69" departLane="best" from="342209181#10" to="-544005365#0"/>
    <trip id="bus219" type="bus_bus" depart="334.22" departLane="best" departSpeed="max" from="-6020656#7" to="6011253#2"/>
    <trip id="bus220" type="bus_bus" depart="335.74" departLane="best" from="6005757#13" to="-196920674#10"/>
    <trip id="bus221" type="bus_bus" depart="337.27" departLane="best" from="-11998018#9" to="-422205411"/>
    <trip id="bus222" type="bus_bus" depart="338.79" departLane="best" from="127009906#6" to="-6017340#7"/>
    <trip id="bus223" type="bus_bus" depart="340.32" departLane="best" from="128833520#11" to="948338668#0"/>
    <trip id="bus224" type="bus_bus" depart="341.85" departLane="best" from="451773151#1" to="6005854#1"/>
    <trip id="bus225" type="bus_bus" depart="343.37" departLane="best" from="76518485#5" to="6014804#2"/>
    <trip id="bus226" type="bus_bus" depart="344.90" departLane="best" from="1083404415#2" to="-1071907318#1"/>
    <trip id="bus227" type="bus_bus" depart="346.43" departLane="best" departSpeed="max" from="-98289589#2" to="-6013441#4"/>
    <trip id="bus228" type="bus_bus" depart="347.95" departLane="best" from="127070306#1" to="6012806#2"/>
    <trip id="bus229" type="bus_bus" depart="349.48" departLane="best" from="364597930#7" to="499207764#1"/>
    <trip id="bus230" type="bus_bus" depart="351.00" departLane="best" from="6017828#0" to="-6021153#3"/>
    <trip id="bus231" type="bus_bus" depart="352.53" departLane="best" from="-138505374#2" to="-127009925#5"/>
    <trip id="bus232" type="bus_bus" depart="354.06" departLane="best" departSpeed="max" from="-98166076#2" to="6003944#3"/>
    <trip id="bus233" type="bus_bus" depart="355.58" departLane="best" from="11998007#13" to="6005114#1"/>
    <trip id="bus234" type="bus_bus" depart="357.11" departLane="best" from="192573109" to="49667899#3"/>
    <trip id="bus235" type="bus_bus" depart="358.63" departLane="best" from="500300517#2" to="-126141419"/>
    <trip id="bus236" type="bus_bus" depart="360.16" departLane="best" from="114768500#1" to="437082795"/>
    <trip id="bus237" type="bus_bus" depart="361.69" departLane="best" from="-11998022#16" to="548173634#2"/>
    <trip id="bus238" type="bus_bus" depart="363.21" departLane="best" from="-49664168#5" to="196920657#5"/>
    <trip id="bus239" type="bus_bus" depart="364.74" departLane="best" from="-188164085#4" to="116052176#2"/>
    <trip id="bus241" type="bus_bus" depart="367.79" departLane="best" from="6012889#3" to="116052176#3"/>
    <trip id="bus242" type="bus_bus" depart="369.32" departLane="best" from="6011404#2" to="72835940#3"/>
    <trip id="bus243" type="bus_bus" depart="370.84" departLane="best" departSpeed="max" from="-711678907#3" to="-258636741#1"/>
    <trip id="bus244" type="bus_bus" depart="372.37" departLane="best" from="-115239644#5" to="402053896#2"/>
    <trip id="bus245" type="bus_bus" depart="373.90" departLane="best" from="-998621904" to="1065747446#0"/>
    <trip id="bus246" type="bus_bus" depart="375.42" departLane="best" from="546360676#0" to="6018657#2"/>
    <trip id="bus247" type="bus_bus" depart="376.95" departLane="best" from="546699153#0" to="6013535#0"/>
    <trip id="bus248" type="bus_bus" depart="378.47" departLane="best" from="98102300#3" to="-6014479#2"/>
    <trip id="bus249" type="bus_bus" depart="380.00" departLane="best" from="-116052176#3" to="6002733#1"/>
    <trip id="bus250" type="bus_bus" depart="381.53" departLane="best" from="452789365#1" to="6003104#7"/>
    <trip id="bus253" type="bus_bus" depart="386.10" departLane="best" from="-6003104#7" to="500861984"/>
    <trip id="bus254" type="bus_bus" depart="387.63" departLane="best" from="-6011298#1" to="-437369980#0"/>
    <trip id="bus255" type="bus_bus" depart="389.16" departLane="best" from="606386294#1" to="-98166058#17"/>
    <trip id="bus256" type="bus_bus" depart="390.68" departLane="best" from="-373839724#0" to="-124814574#1"/>
    <trip id="bus257" type="bus_bus" depart="392.21" departLane="best" from="-952023902#7" to="6003831#4"/>
    <trip id="bus258" type="bus_bus" depart="393.73" departLane="best" from="98115620#2" to="127009925#2"/>
    <trip id="bus259" type="bus_bus" depart="395.26" departLane="best" from="6006364#1" to="-221350778"/>
    <trip id="bus260" type="bus_bus" depart="396.79" departLane="best" from="6003883#4" to="542335277#3"/>