<?xml version="1.0" encoding="UTF-8"?>

<!-- generated on 2024-06-03 16:23:29 by Eclipse SUMO netedit Version 1.20.0
-->

<additional xmlns:xsi="http://www.w3.org/2001/XMLSchema-instance" xsi:noNamespaceSchemaLocation="http://sumo.dlr.de/xsd/additional_file.xsd">
    <!-- StoppingPlaces -->
    <busStop id="-288290300" name="State Center" lane="-834843615#0_0" startPos="2542.92" endPos="2742.92" friendlyPos="true">
        <access lane="1066025314#1_0" pos="77.91" length="21.78" friendlyPos="1"/>
        <access lane="279676298#0_0" pos="32.30" length="16.77" friendlyPos="1"/>
        <access lane="468893369#6_0" pos="0.00" length="21.03" friendlyPos="1"/>
        <access lane="468893369#7_0" pos="0.20" length="19.83" friendlyPos="1"/>
        <access lane="949167913#2_0" pos="0.00" length="23.72" friendlyPos="1"/>
    </busStop>
    <busStop id="-288290312" name="Shot Tower/Market Place" lane="-834843615#0_0" startPos="0.00" endPos="200.00" friendlyPos="true">
        <access lane="113296955#2_0" pos="0.00" length="28.10" friendlyPos="1"/>
        <access lane="113296956#0_0" pos="0.00" length="27.92" friendlyPos="1"/>
        <access lane="1171002498#1_0" pos="0.00" length="26.16" friendlyPos="1"/>
        <access lane="1171002502#0_0" pos="0.00" length="11.54" friendlyPos="1"/>
        <access lane="1171002503#0_0" pos="0.00" length="11.95" friendlyPos="1"/>
    </busStop>
    <busStop id="-288290321" name="Johns Hopkins Hospital" lane="-834843615#1_0" startPos="0.00" endPos="200.00" friendlyPos="true">
        <access lane="1161765145#0_0" pos="1.06" length="11.01" friendlyPos="1"/>
        <access lane="1161765145#1_0" pos="4.29" length="1.23" friendlyPos="1"/>
        <access lane="1161765150_0" pos="0.00" length="17.00" friendlyPos="1"/>
        <access lane="548389767#5_0" pos="24.79" length="11.14" friendlyPos="1"/>
        <access lane="998062549_0" pos="0.68" length="8.35" friendlyPos="1"/>
    </busStop>
    <busStop id="-288292760" name="Lexington Market" lane="-834843615#0_0" startPos="1525.28" endPos="1725.28" friendlyPos="true">
        <access lane="-543583832#1_0" pos="0.84" length="5.73" friendlyPos="1"/>
        <access lane="393742107#3_0" pos="0.20" length="16.02" friendlyPos="1"/>
        <access lane="393742107#4_0" pos="0.00" length="11.66" friendlyPos="1"/>
        <access lane="393742107#5_0" pos="0.00" length="13.74" friendlyPos="1"/>
        <access lane="543583832#1_0" pos="60.29" length="8.67" friendlyPos="1"/>
    </busStop>
    <busStop id="-49484584" lane="-201637236#0_0" startPos="79.10" endPos="94.10" friendlyPos="true" lines="76 80"/>
    <busStop id="-49554496" name="Baltimore Camden Station" lane="-902038850#0_0" startPos="50.70" endPos="250.70" friendlyPos="true">
        <access lane="1083856296_0" pos="5.84" length="6.48" friendlyPos="1"/>
        <access lane="1083856297_0" pos="3.09" length="13.36" friendlyPos="1"/>
        <access lane="1083902066#0_0" pos="0.00" length="17.67" friendlyPos="1"/>
        <access lane="1083902066#1_0" pos="0.00" length="23.78" friendlyPos="1"/>
        <access lane="473662314_0" pos="0.00" length="17.90" friendlyPos="1"/>
    </busStop>
    <busStop id="-6125725579" lane="-111081881#1_0" startPos="87.56" endPos="102.56" friendlyPos="true" lines="RD"/>
    <busStop id="-7785026032" name="Charles Center" lane="834843619#1_0" startPos="1058.32" endPos="1258.32" friendlyPos="true">
        <access lane="-6021708_0" pos="58.40" length="67.53" friendlyPos="1"/>
        <access lane="6011099#1_0" pos="0.00" length="66.43" friendlyPos="1"/>
        <access lane="6021708_0" pos="39.93" length="62.73" friendlyPos="1"/>
        <access lane="6023074#1_1" pos="37.12" length="5.34" friendlyPos="1"/>
        <access lane="98144349#1_0" pos="43.29" length="68.88" friendlyPos="1"/>
    </busStop>
    <busStop id="-7785026033" name="Charles Center" lane="-834843615#0_0" startPos="676.93" endPos="876.93" friendlyPos="true">
        <access lane="-6021708_0" pos="58.29" length="76.23" friendlyPos="1"/>
        <access lane="6011099#1_0" pos="0.00" length="69.32" friendlyPos="1"/>
        <access lane="6021708_0" pos="40.03" length="71.43" friendlyPos="1"/>
        <access lane="6023074#1_1" pos="37.20" length="3.36" friendlyPos="1"/>
        <access lane="98144349#1_0" pos="43.29" length="67.18" friendlyPos="1"/>
    </busStop>
    <busStop id="-842581199" name="Baltimore Camden Station" lane="-902038843#0_0" startPos="50.71" endPos="250.71" friendlyPos="true">
        <access lane="1083856296_0" pos="6.20" length="13.95" friendlyPos="1"/>
        <access lane="1083856297_0" pos="3.43" length="5.88" friendlyPos="1"/>
        <access lane="1083902066#0_0" pos="0.00" length="12.04" friendlyPos="1"/>
        <access lane="1083902066#1_0" pos="0.00" length="17.24" friendlyPos="1"/>
        <access lane="473662314_0" pos="0.00" length="13.89" friendlyPos="1"/>
    </busStop>
    <busStop id="-842581360" name="Baltimore Camden Station" lane="-70606502#0_0" startPos="51.47" endPos="251.47" friendlyPos="true">
        <access lane="-452936679#0_0" pos="50.12" length="20.53" friendlyPos="1"/>
        <access lane="-53143158#2_0" pos="0.00" length="16.57" friendlyPos="1"/>
        <access lane="1083856296_0" pos="5.22" length="6.87" friendlyPos="1"/>
        <access lane="452936679#0_0" pos="0.47" length="25.33" friendlyPos="1"/>
        <access lane="473662315#0_0" pos="57.18" length="10.74" friendlyPos="1"/>
    </busStop>
    <busStop id="-844091659" name="Johns Hopkins Hospital" lane="834843619#1_0" startPos="3361.23" endPos="3561.23" friendlyPos="true">
        <access lane="1161188065#0_0" pos="3.14" length="16.24" friendlyPos="1"/>
        <access lane="1161188065#1_0" pos="2.80" length="7.83" friendlyPos="1"/>
        <access lane="1161765145#1_0" pos="5.61" length="9.30" friendlyPos="1"/>
        <access lane="196948954#1_0" pos="0.69" length="16.03" friendlyPos="1"/>
        <access lane="998062549_0" pos="1.23" length="2.63" friendlyPos="1"/>
    </busStop>
    <busStop id="-844091769" name="Lexington Market" lane="834843616_0" startPos="3144.43" endPos="3344.43" friendlyPos="true">
        <access lane="-543583832#1_0" pos="0.81" length="12.59" friendlyPos="1"/>
        <access lane="1030813196_0" pos="0.80" length="10.02" friendlyPos="1"/>
        <access lane="393742107#2_0" pos="0.20" length="11.85" friendlyPos="1"/>
        <access lane="393742107#3_0" pos="0.20" length="9.74" friendlyPos="1"/>
        <access lane="543583832#1_0" pos="60.32" length="1.81" friendlyPos="1"/>
    </busStop>
    <busStop id="-844091805" name="Shot Tower/Market Place" lane="834843619#1_0" startPos="1800.61" endPos="2000.61" friendlyPos="true">
        <access lane="1099965106#1_0" pos="53.07" length="29.12" friendlyPos="1"/>
        <access lane="113296955#2_0" pos="0.00" length="24.46" friendlyPos="1"/>
        <access lane="1171002502#0_0" pos="0.00" length="5.42" friendlyPos="1"/>
        <access lane="1171002503#0_0" pos="0.00" length="6.13" friendlyPos="1"/>
        <access lane="424997828#0_0" pos="35.31" length="26.60" friendlyPos="1"/>
    </busStop>
    <busStop id="-844091819" name="State Center" lane="-834843619#0_0" startPos="577.58" endPos="777.58" friendlyPos="true">
        <access lane="1066025314#1_0" pos="77.91" length="25.42" friendlyPos="1"/>
        <access lane="279676298#0_0" pos="32.30" length="19.64" friendlyPos="1"/>
        <access lane="468893369#7_0" pos="0.20" length="24.01" friendlyPos="1"/>
        <access lane="468893369#9_0" pos="0.00" length="23.55" friendlyPos="1"/>
        <access lane="542335285#1_0" pos="0.00" length="22.77" friendlyPos="1"/>
    </busStop>
    <busStop id="1285206581" lane="436184202#3_0" startPos="7.54" endPos="22.54" friendlyPos="true" lines="BR"/>
    <busStop id="1990938847" lane="107263469#3_0" startPos="67.05" endPos="82.05" friendlyPos="true" lines="GR 67 94 63"/>
    <busStop id="2028132779" lane="192254092_0" startPos="9.63" endPos="24.63" friendlyPos="true" lines="310"/>
    <busStop id="2028132781" lane="192254092_0" startPos="30.00" endPos="45.00" friendlyPos="true" lines="69 70 75 310"/>
    <busStop id="2041360596" lane="98289467#1_0" startPos="10.53" endPos="25.53" friendlyPos="true" lines="PR 310"/>
    <busStop id="2055577697" lane="279676296#1_0" startPos="9.62" endPos="24.62" friendlyPos="true" lines="YW 53 73"/>
    <busStop id="2061844596" lane="107438752#2_0" startPos="64.92" endPos="79.92" friendlyPos="true" lines="PR 56 65 71"/>
    <busStop id="2061918595" lane="195773994_0" startPos="45.25" endPos="60.25" friendlyPos="true"/>
    <busStop id="2078243846" lane="197613653#3_0" startPos="40.84" endPos="55.84" friendlyPos="true" lines="LM"/>
    <busStop id="256525877" name="Mount Royal / University of Baltimore" lane="201855692#0_0" startPos="4.69" endPos="204.69" friendlyPos="true" lines="LR"/>
    <busStop id="268119984" name="Camden Yards" lane="834074204#3_0" startPos="0.00" endPos="111.93" friendlyPos="true" lines="LR">
        <access lane="1083855545#1_0" pos="0.00" length="6.61" friendlyPos="1"/>
        <access lane="1083856297_0" pos="92.99" length="6.67" friendlyPos="1"/>
        <access lane="1083875172#0_0" pos="0.10" length="9.15" friendlyPos="1"/>
        <access lane="1083875172#1_0" pos="0.20" length="1.75" friendlyPos="1"/>
        <access lane="1083902067#1_0" pos="95.43" length="12.50" friendlyPos="1"/>
    </busStop>
    <busStop id="268121066" name="Convention Center" lane="201855692#42_0" startPos="0.00" endPos="93.74" friendlyPos="true" lines="LR">
        <access lane="1083875170#0_0" pos="6.44" length="5.38" friendlyPos="1"/>
        <access lane="1083875171_0" pos="86.98" length="9.97" friendlyPos="1"/>
        <access lane="1218535054#0_0" pos="0.00" length="12.91" friendlyPos="1"/>
        <access lane="70990337#3_0" pos="0.20" length="13.60" friendlyPos="1"/>
        <access lane="70990337#4_0" pos="0.00" length="13.82" friendlyPos="1"/>
    </busStop>
    <busStop id="268127431" name="Centre Street" lane="201855692#12_0" startPos="0.00" endPos="95.27" friendlyPos="true" lines="LR">
        <access lane="-5991883#0_0" pos="38.75" length="36.92" friendlyPos="1"/>
        <access lane="393742144#7_0" pos="6.65" length="18.21" friendlyPos="1"/>
        <access lane="393742144#8_0" pos="0.00" length="22.07" friendlyPos="1"/>
        <access lane="393742144#9_0" pos="0.00" length="26.80" friendlyPos="1"/>
        <access lane="98117556#2_0" pos="15.48" length="15.07" friendlyPos="1"/>
    </busStop>
    <busStop id="268134107" name="Hamburg Street" lane="201855686#1_0" startPos="0.00" endPos="53.12" friendlyPos="true" lines="LR">
        <access lane="-185463292#0_0" pos="0.00" length="18.22" friendlyPos="1"/>
        <access lane="-186985205_0" pos="1.96" length="9.19" friendlyPos="1"/>
        <access lane="-24645647_0" pos="94.92" length="14.23" friendlyPos="1"/>
        <access lane="186985205_0" pos="88.82" length="6.19" friendlyPos="1"/>
        <access lane="525070239_0" pos="141.56" length="19.03" friendlyPos="1"/>
    </busStop>
    <busStop id="288290300" name="State Center" lane="834843603_0" startPos="22.55" endPos="222.55" friendlyPos="true" lines="M">
        <access lane="1066025314#1_0" pos="77.91" length="21.78" friendlyPos="1"/>
        <access lane="279676298#0_0" pos="32.30" length="16.77" friendlyPos="1"/>
        <access lane="468893369#6_0" pos="0.00" length="21.03" friendlyPos="1"/>
        <access lane="468893369#7_0" pos="0.20" length="19.83" friendlyPos="1"/>
        <access lane="949167913#2_0" pos="0.00" length="23.72" friendlyPos="1"/>
    </busStop>
    <busStop id="288290312" name="Shot Tower/Market Place" lane="834843603_0" startPos="2565.47" endPos="2765.47" friendlyPos="true" lines="M">
        <access lane="113296955#2_0" pos="0.00" length="28.10" friendlyPos="1"/>
        <access lane="113296956#0_0" pos="0.00" length="27.92" friendlyPos="1"/>
        <access lane="1171002498#1_0" pos="0.00" length="26.16" friendlyPos="1"/>
        <access lane="1171002502#0_0" pos="0.00" length="11.54" friendlyPos="1"/>
        <access lane="1171002503#0_0" pos="0.00" length="11.95" friendlyPos="1"/>
    </busStop>
    <busStop id="288290321" name="Johns Hopkins Hospital" lane="834843615#1_0" startPos="1401.24" endPos="1601.24" friendlyPos="true" lines="M">
        <access lane="1161765145#0_0" pos="1.06" length="11.01" friendlyPos="1"/>
        <access lane="1161765145#1_0" pos="4.29" length="1.23" friendlyPos="1"/>
        <access lane="1161765150_0" pos="0.00" length="17.00" friendlyPos="1"/>
        <access lane="548389767#5_0" pos="24.79" length="11.14" friendlyPos="1"/>
        <access lane="998062549_0" pos="0.68" length="8.35" friendlyPos="1"/>
    </busStop>
    <busStop id="288292760" name="Lexington Market" lane="834843603_0" startPos="1040.19" endPos="1240.19" friendlyPos="true" lines="M">
        <access lane="-543583832#1_0" pos="0.84" length="5.73" friendlyPos="1"/>
        <access lane="393742107#3_0" pos="0.20" length="16.02" friendlyPos="1"/>
        <access lane="393742107#4_0" pos="0.00" length="11.66" friendlyPos="1"/>
        <access lane="393742107#5_0" pos="0.00" length="13.74" friendlyPos="1"/>
        <access lane="543583832#1_0" pos="60.29" length="8.67" friendlyPos="1"/>
    </busStop>
    <busStop id="414569919" lane="364448980#2_0" startPos="13.97" endPos="28.97" friendlyPos="true"/>
    <busStop id="4243488625" lane="424998872_0" startPos="0.00" endPos="15.00" friendlyPos="true" lines="56 71 210 215 310"/>
    <busStop id="4341689166" lane="948928818#0_0" startPos="0.00" endPos="13.11" friendlyPos="true"/>
    <busStop id="4485533501" lane="98106800#1_0" startPos="30.60" endPos="45.60" friendlyPos="true" lines="PR 67 210 215 310"/>
    <busStop id="4493423213" lane="447777482#2_0" startPos="33.13" endPos="48.13" friendlyPos="true"/>
    <busStop id="4915830530" lane="72833951#1_0" startPos="82.04" endPos="97.04" friendlyPos="true"/>
    <busStop id="4927577783" name="West Baltimore" lane="502201044#2_0" startPos="130.79" endPos="145.79" friendlyPos="true" lines="PK"/>
    <busStop id="4927577784" name="West Baltimore" lane="502201044#2_0" startPos="115.85" endPos="130.85" friendlyPos="true"/>
    <busStop id="4927577785" name="West Baltimore" lane="502201044#2_0" startPos="8.64" endPos="23.64" friendlyPos="true" lines="OR"/>
    <busStop id="4927577794" name="West Baltimore" lane="502201044#2_0" startPos="35.69" endPos="50.69" friendlyPos="true" lines="77 78"/>
    <busStop id="4933408057" lane="424998872_0" startPos="25.56" endPos="40.56" friendlyPos="true"/>
    <busStop id="4933408058" lane="424998872_0" startPos="12.96" endPos="27.96" friendlyPos="true" lines="150 56 71 210 215 310"/>
    <busStop id="4933408059" lane="231639988#1_0" startPos="18.35" endPos="33.35" friendlyPos="true" lines="105 160 OR PR"/>
    <busStop id="49484584" lane="116534593#1_0" startPos="20.16" endPos="35.16" friendlyPos="true" lines="67 76"/>
    <busStop id="49554496" name="Baltimore Camden Station" lane="902038850#0_0" startPos="0.00" endPos="200.00" friendlyPos="true">
        <access lane="1083856296_0" pos="5.84" length="6.48" friendlyPos="1"/>
        <access lane="1083856297_0" pos="3.09" length="13.36" friendlyPos="1"/>
        <access lane="1083902066#0_0" pos="0.00" length="17.67" friendlyPos="1"/>
        <access lane="1083902066#1_0" pos="0.00" length="23.78" friendlyPos="1"/>
        <access lane="473662314_0" pos="0.00" length="17.90" friendlyPos="1"/>
    </busStop>
    <busStop id="49562965" lane="24709874#0_0" startPos="108.68" endPos="123.68" friendlyPos="true" lines="YW"/>
    <busStop id="5078328843" lane="173867943#1_0" startPos="0.00" endPos="15.00" friendlyPos="true"/>
    <busStop id="5078328844" lane="130599664#3_0" startPos="42.67" endPos="57.67" friendlyPos="true"/>
    <busStop id="5078328846" lane="189310752#6_0" startPos="19.67" endPos="34.67" friendlyPos="true"/>
    <busStop id="5078328847" lane="1262841371#1_0" startPos="21.51" endPos="36.51" friendlyPos="true"/>
    <busStop id="5078878106" lane="98144277#2_0" startPos="30.64" endPos="45.64" friendlyPos="true"/>
    <busStop id="5078925568" lane="542345404#0_0" startPos="22.09" endPos="37.09" friendlyPos="true"/>
    <busStop id="5078925569" lane="978418116#1_0" startPos="31.13" endPos="46.13" friendlyPos="true"/>
    <busStop id="5078925570" lane="72833951#1_0" startPos="97.13" endPos="112.13" friendlyPos="true"/>
    <busStop id="5078925571" lane="72833951#1_0" startPos="91.33" endPos="106.33" friendlyPos="true"/>
    <busStop id="5078925572" lane="6011099#3_0" startPos="3.87" endPos="18.87" friendlyPos="true"/>
    <busStop id="5078925573" lane="98144288#4_0" startPos="12.44" endPos="27.44" friendlyPos="true"/>
    <busStop id="5078925574" lane="46582175#5_0" startPos="32.72" endPos="47.72" friendlyPos="true"/>
    <busStop id="5078925575" lane="98166058#17_0" startPos="23.59" endPos="38.59" friendlyPos="true"/>
    <busStop id="5078925576" lane="98166058#9_0" startPos="11.82" endPos="26.82" friendlyPos="true"/>
    <busStop id="5078925577" lane="979417611#1_0" startPos="2.19" endPos="17.19" friendlyPos="true"/>
    <busStop id="5078925578" lane="132521447#0_0" startPos="0.00" endPos="15.00" friendlyPos="true"/>
    <busStop id="5078925579" lane="947732352#1_0" startPos="41.62" endPos="56.62" friendlyPos="true"/>
    <busStop id="5078925580" lane="11878252_0" startPos="0.00" endPos="15.00" friendlyPos="true"/>
    <busStop id="5078925581" lane="11878252_0" startPos="32.45" endPos="47.45" friendlyPos="true"/>
    <busStop id="5078925582" lane="47987509_0" startPos="13.51" endPos="28.51" friendlyPos="true"/>
    <busStop id="5078925583" lane="452936688_0" startPos="79.41" endPos="94.41" friendlyPos="true"/>
    <busStop id="5078925584" lane="976863748_0" startPos="0.18" endPos="15.18" friendlyPos="true"/>
    <busStop id="5078925585" lane="22775635#1_0" startPos="18.25" endPos="33.25" friendlyPos="true"/>
    <busStop id="5258700659" lane="501458437_0" startPos="39.65" endPos="54.65" friendlyPos="true"/>
    <busStop id="6117378696" lane="138388359#8_0" startPos="464.75" endPos="479.75" friendlyPos="true"/>
    <busStop id="6125854158" lane="111081881#8_0" startPos="74.69" endPos="89.69" friendlyPos="true" lines="RD"/>
    <busStop id="6133918983" lane="542345404#0_0" startPos="22.09" endPos="37.09" friendlyPos="true" lines="410"/>
    <busStop id="6133930561" lane="98289536#1_0" startPos="84.16" endPos="99.16" friendlyPos="true" lines="BR 65 63"/>
    <busStop id="6133931757" lane="130599637#3_0" startPos="0.00" endPos="15.00" friendlyPos="true" lines="BR NV 65 63"/>
    <busStop id="6133931759" lane="130599637#3_0" startPos="0.00" endPos="15.00" friendlyPos="true"/>
    <busStop id="6133941589" lane="424990630_0" startPos="32.00" endPos="47.00" friendlyPos="true" lines="GD"/>
    <busStop id="6152778520" lane="978418116#1_0" startPos="31.13" endPos="46.13" friendlyPos="true" lines="51 103 411 410 420 GR SV 95"/>
    <busStop id="6152786597" lane="130599664#0_0" startPos="0.00" endPos="8.05" friendlyPos="true"/>
    <busStop id="6152795550" lane="114768500#1_0" startPos="90.27" endPos="105.27" friendlyPos="true"/>
    <busStop id="6152795789" lane="606386294#1_0" startPos="20.07" endPos="35.07" friendlyPos="true"/>
    <busStop id="6152803671" lane="543571695_0" startPos="34.54" endPos="49.54" friendlyPos="true"/>
    <busStop id="6228221087" name="Pratt Street &amp; South Street Eastbound" lane="130599634#0_0" startPos="0.00" endPos="0.57" friendlyPos="true" lines="NV"/>
    <busStop id="6228221089" lane="665430761#1_0" startPos="5.19" endPos="20.19" friendlyPos="true"/>
    <busStop id="7785026032" name="Charles Center" lane="834843616_0" startPos="2302.91" endPos="2502.91" friendlyPos="true" lines="M">
        <access lane="-6021708_0" pos="58.40" length="67.53" friendlyPos="1"/>
        <access lane="6011099#1_0" pos="0.00" length="66.43" friendlyPos="1"/>
        <access lane="6021708_0" pos="39.93" length="62.73" friendlyPos="1"/>
        <access lane="6023074#1_1" pos="37.12" length="5.34" friendlyPos="1"/>
        <access lane="98144349#1_0" pos="43.29" length="68.88" friendlyPos="1"/>
    </busStop>
    <busStop id="7785026033" name="Charles Center" lane="834843603_0" startPos="1888.54" endPos="2088.54" friendlyPos="true" lines="M">
        <access lane="-6021708_0" pos="58.29" length="76.23" friendlyPos="1"/>
        <access lane="6011099#1_0" pos="0.00" length="69.32" friendlyPos="1"/>
        <access lane="6021708_0" pos="40.03" length="71.43" friendlyPos="1"/>
        <access lane="6023074#1_1" pos="37.20" length="3.36" friendlyPos="1"/>
        <access lane="98144349#1_0" pos="43.29" length="67.18" friendlyPos="1"/>
    </busStop>
    <busStop id="842581199" name="Baltimore Camden Station" lane="902038843#0_0" startPos="0.00" endPos="200.00" friendlyPos="true">
        <access lane="1083856296_0" pos="6.20" length="13.95" friendlyPos="1"/>
        <access lane="1083856297_0" pos="3.43" length="5.88" friendlyPos="1"/>
        <access lane="1083902066#0_0" pos="0.00" length="12.04" friendlyPos="1"/>
        <access lane="1083902066#1_0" pos="0.00" length="17.24" friendlyPos="1"/>
        <access lane="473662314_0" pos="0.00" length="13.89" friendlyPos="1"/>
    </busStop>
    <busStop id="842581360" name="Baltimore Camden Station" lane="70606502#0_0" startPos="0.00" endPos="200.00" friendlyPos="true">
        <access lane="-452936679#0_0" pos="50.12" length="20.53" friendlyPos="1"/>
        <access lane="-53143158#2_0" pos="0.00" length="16.57" friendlyPos="1"/>
        <access lane="1083856296_0" pos="5.22" length="6.87" friendlyPos="1"/>
        <access lane="452936679#0_0" pos="0.47" length="25.33" friendlyPos="1"/>
        <access lane="473662315#0_0" pos="57.18" length="10.74" friendlyPos="1"/>
    </busStop>
    <busStop id="844091659" name="Johns Hopkins Hospital" lane="834843616_0" startPos="0.00" endPos="200.00" friendlyPos="true" lines="M">
        <access lane="1161188065#0_0" pos="3.14" length="16.24" friendlyPos="1"/>
        <access lane="1161188065#1_0" pos="2.80" length="7.83" friendlyPos="1"/>
        <access lane="1161765145#1_0" pos="5.61" length="9.30" friendlyPos="1"/>
        <access lane="196948954#1_0" pos="0.69" length="16.03" friendlyPos="1"/>
        <access lane="998062549_0" pos="1.23" length="2.63" friendlyPos="1"/>
    </busStop>
    <busStop id="844091769" name="Lexington Market" lane="834843619#1_0" startPos="216.80" endPos="416.80" friendlyPos="true">
        <access lane="-543583832#1_0" pos="0.81" length="12.59" friendlyPos="1"/>
        <access lane="1030813196_0" pos="0.80" length="10.02" friendlyPos="1"/>
        <access lane="393742107#2_0" pos="0.20" length="11.85" friendlyPos="1"/>
        <access lane="393742107#3_0" pos="0.20" length="9.74" friendlyPos="1"/>
        <access lane="543583832#1_0" pos="60.32" length="1.81" friendlyPos="1"/>
    </busStop>
    <busStop id="844091805" name="Shot Tower/Market Place" lane="834843616_0" startPos="1560.62" endPos="1760.62" friendlyPos="true" lines="M">
        <access lane="1099965106#1_0" pos="53.07" length="29.12" friendlyPos="1"/>
        <access lane="113296955#2_0" pos="0.00" length="24.46" friendlyPos="1"/>
        <access lane="1171002502#0_0" pos="0.00" length="5.42" friendlyPos="1"/>
        <access lane="1171002503#0_0" pos="0.00" length="6.13" friendlyPos="1"/>
        <access lane="424997828#0_0" pos="35.31" length="26.60" friendlyPos="1"/>
    </busStop>
    <busStop id="844091819" name="State Center" lane="834843604_0" startPos="19.12" endPos="219.12" friendlyPos="true">
        <access lane="1066025314#1_0" pos="77.91" length="25.42" friendlyPos="1"/>
        <access lane="279676298#0_0" pos="32.30" length="19.64" friendlyPos="1"/>
        <access lane="468893369#7_0" pos="0.20" length="24.01" friendlyPos="1"/>
        <access lane="468893369#9_0" pos="0.00" length="23.55" friendlyPos="1"/>
        <access lane="542335285#1_0" pos="0.00" length="22.77" friendlyPos="1"/>
    </busStop>
    <busStop id="844812026" name="Mount Royal / University of Baltimore" lane="201855693#51_0" startPos="496.77" endPos="696.77" friendlyPos="true" lines="LR"/>
    <busStop id="845371928" name="Lexington Market" lane="201855693#27_0" startPos="0.00" endPos="53.73" friendlyPos="true" lines="LR">
        <access lane="-547782547#0_0" pos="36.08" length="50.91" friendlyPos="1"/>
        <access lane="1030813200#1_0" pos="55.11" length="45.48" friendlyPos="1"/>
        <access lane="476147290#1_0" pos="81.08" length="51.29" friendlyPos="1"/>
        <access lane="547782546#1_0" pos="0.00" length="47.12" friendlyPos="1"/>
        <access lane="98102321#2_0" pos="28.50" length="4.84" friendlyPos="1"/>
    </busStop>
    <busStop id="845371957" name="Cultural Center" lane="201855693#51_0" startPos="137.03" endPos="337.03" friendlyPos="true" lines="LR">
        <access lane="1052381529_0" pos="0.00" length="147.84" friendlyPos="1"/>
        <access lane="1059789276#1_0" pos="56.54" length="180.01" friendlyPos="1"/>
        <access lane="160184506#3_0" pos="167.27" length="147.44" friendlyPos="1"/>
        <access lane="468893365#4_0" pos="251.96" length="45.63" friendlyPos="1"/>
        <access lane="83502320#0_0" pos="0.00" length="118.53" friendlyPos="1"/>
    </busStop>
    <busStop id="845372006" name="Cultural Center" lane="201855692#0_0" startPos="443.99" endPos="643.99" friendlyPos="true" lines="LR">
        <access lane="1052381529_0" pos="0.00" length="21.23" friendlyPos="1"/>
        <access lane="1059789276#1_0" pos="61.04" length="61.59" friendlyPos="1"/>
        <access lane="160184506#3_0" pos="167.27" length="26.42" friendlyPos="1"/>
        <access lane="468893365#4_0" pos="178.58" length="41.21" friendlyPos="1"/>
        <access lane="83502320#0_0" pos="0.00" length="25.49" friendlyPos="1"/>
    </busStop>
    <busStop id="845372077" name="Centre Street / Mount Vernon" lane="201855693#39_0" startPos="0.00" endPos="97.58" friendlyPos="true" lines="LR">
        <access lane="-748908833_0" pos="0.00" length="31.59" friendlyPos="1"/>
        <access lane="393742152#1_0" pos="8.33" length="23.12" friendlyPos="1"/>
        <access lane="393742152#2_0" pos="0.20" length="21.28" friendlyPos="1"/>
        <access lane="393742152#3_0" pos="0.00" length="21.38" friendlyPos="1"/>
        <access lane="98117556#3_0" pos="35.05" length="9.09" friendlyPos="1"/>
    </busStop>
    <busStop id="845372098" name="Lexington Market" lane="201855692#23_0" startPos="0.00" endPos="128.51" friendlyPos="true" lines="LR">
        <access lane="393742095#1_0" pos="0.00" length="39.42" friendlyPos="1"/>
        <access lane="393742095#2_0" pos="0.00" length="40.01" friendlyPos="1"/>
        <access lane="393742095#3_0" pos="0.00" length="41.28" friendlyPos="1"/>
        <access lane="468893362#1_0" pos="1.99" length="40.89" friendlyPos="1"/>
        <access lane="98102321#1_0" pos="23.68" length="5.86" friendlyPos="1"/>
    </busStop>
    <busStop id="845910926" name="Camden Yards" lane="834074203#1_0" startPos="0.00" endPos="111.90" friendlyPos="true">
        <access lane="1083855545#1_0" pos="6.46" length="11.96" friendlyPos="1"/>
        <access lane="1083875172#1_0" pos="0.20" length="15.80" friendlyPos="1"/>
        <access lane="1083902067#1_0" pos="104.34" length="5.95" friendlyPos="1"/>
        <access lane="1185816916#1_0" pos="0.20" length="15.38" friendlyPos="1"/>
        <access lane="1185816916#2_0" pos="0.00" length="15.44" friendlyPos="1"/>
    </busStop>
    <busStop id="845911023" name="Camden Yards" lane="71214999#4_0" startPos="83.83" endPos="283.83" friendlyPos="true" lines="LR">
        <access lane="1083902066#0_0" pos="0.20" length="21.55" friendlyPos="1"/>
        <access lane="1083902066#1_0" pos="0.20" length="15.10" friendlyPos="1"/>
        <access lane="1083902066#2_0" pos="0.20" length="9.16" friendlyPos="1"/>
        <access lane="1083902067#0_0" pos="0.00" length="5.89" friendlyPos="1"/>
        <access lane="1083902067#1_0" pos="0.00" length="10.34" friendlyPos="1"/>
    </busStop>
    <busStop id="845911032" name="Baltimore Arena" lane="201855692#34_0" startPos="0.00" endPos="168.90" friendlyPos="true" lines="LR">
        <access lane="-6012983_0" pos="22.31" length="54.41" friendlyPos="1"/>
        <access lane="1089187576_0" pos="89.86" length="8.42" friendlyPos="1"/>
        <access lane="212538570#5_0" pos="79.15" length="4.15" friendlyPos="1"/>
        <access lane="6012983_0" pos="0.00" length="50.31" friendlyPos="1"/>
        <access lane="6020130#1_0" pos="79.10" length="18.27" friendlyPos="1"/>
    </busStop>
    <busStop id="845911322" name="Camden Yards" lane="834074203#1_0" startPos="0.00" endPos="111.90" friendlyPos="true">
        <access lane="1083856297_0" pos="17.08" length="12.42" friendlyPos="1"/>
        <access lane="1083902066#0_0" pos="0.20" length="31.03" friendlyPos="1"/>
        <access lane="1083902066#1_0" pos="0.20" length="29.49" friendlyPos="1"/>
        <access lane="1083902066#2_0" pos="0.00" length="29.41" friendlyPos="1"/>
        <access lane="1083902067#1_0" pos="17.00" length="5.56" friendlyPos="1"/>
    </busStop>
    <busStop id="845911382" name="Baltimore Arena" lane="201855693#14_0" startPos="0.00" endPos="168.65" friendlyPos="true" lines="LR">
        <access lane="1089187576_0" pos="16.92" length="2.71" friendlyPos="1"/>
        <access lane="212538570#5_0" pos="152.14" length="9.09" friendlyPos="1"/>
        <access lane="393742084#7_0" pos="0.20" length="29.54" friendlyPos="1"/>
        <access lane="393742084#8_0" pos="0.20" length="29.26" friendlyPos="1"/>
        <access lane="6020130#1_0" pos="152.05" length="13.41" friendlyPos="1"/>
    </busStop>
    <busStop id="845911431" name="Convention Center" lane="201855693#6_0" startPos="0.00" endPos="93.25" friendlyPos="true" lines="LR">