<?xml version="1.0" encoding="UTF-8"?>

<!-- generated on 2024-06-14 13:09:07 by Eclipse SUMO netedit Version 1.20.0
<configuration xmlns:xsi="http://www.w3.org/2001/XMLSchema-instance" xsi:noNamespaceSchemaLocation="http://sumo.dlr.de/xsd/neteditConfiguration.xsd">

    <input>
        <sumocfg-file value="/home/ahoope5/Desktop/SUMORL/SUMO-Routing-RL/data/balt/Nets/osm.sumocfg"/>
        <additional-files value="/home/ahoope5/Desktop/SUMORL/SUMO-Routing-RL/data/balt/Nets/osm_stops.add.xml"/>
        <route-files value="/home/ahoope5/Desktop/SUMORL/SUMO-Routing-RL/data/balt/Nets/osm_pt.rou.xml"/>
        <sumo-net-file value="/home/ahoope5/Desktop/SUMORL/SUMO-Routing-RL/data/balt/Nets/osm.net.xml"/>
    </input>

    <output>
        <output-file value="/home/ahoope5/Desktop/SUMORL/SUMO-Routing-RL/data/balt/Nets/osm.net.xml"/>
        <output.street-names value="true"/>
    </output>

    <processing>
        <geometry.min-radius.fix.railways value="false"/>
        <geometry.max-grade.fix value="false"/>
        <offset.disable-normalization value="true"/>
        <lefthand value="0"/>
    </processing>

    <junctions>
        <no-turnarounds value="true"/>
        <junctions.corner-detail value="5"/>
        <junctions.limit-turn-speed value="5.50"/>
        <rectangular-lane-cut value="0"/>
    </junctions>

    <pedestrian>
        <walkingareas value="0"/>
    </pedestrian>

</configuration>
-->

<net version="1.20" junctionCornerDetail="5" limitTurnSpeed="5.50" xmlns:xsi="http://www.w3.org/2001/XMLSchema-instance" xsi:noNamespaceSchemaLocation="http://sumo.dlr.de/xsd/net_file.xsd">

    <location netOffset="-363361.41,-4348703.41" convBoundary="626.73,513.24,1608.08,1051.02" origBoundary="-76.584320,39.277133,-76.562162,39.290085" projParameter="+proj=utm +zone=18 +ellps=WGS84 +datum=WGS84 +units=m +no_defs"/>

    <type id="highway.primary" priority="12" numLanes="2" speed="27.78" disallow="tram rail_urban rail rail_electric rail_fast ship" oneway="0"/>
    <type id="highway.residential" priority="3" numLanes="1" speed="13.89" disallow="tram rail_urban rail rail_electric rail_fast ship" oneway="0"/>
    <type id="highway.tertiary" priority="10" numLanes="1" speed="22.22" disallow="tram rail_urban rail rail_electric rail_fast ship" oneway="0"/>

    <edge id=":3167917444_0" function="internal">
        <lane id=":3167917444_0_0" index="0" disallow="tram rail_urban rail rail_electric rail_fast ship cable_car subway" speed="11.18" length="0.31" shape="1384.36,939.36 1384.04,939.35"/>
        <lane id=":3167917444_0_1" index="1" disallow="tram rail_urban rail rail_electric rail_fast ship cable_car subway" speed="11.18" length="0.31" shape="1384.45,936.16 1384.15,936.15"/>
    </edge>
    <edge id=":3167917444_2" function="internal">
        <lane id=":3167917444_2_0" index="0" disallow="tram rail_urban rail rail_electric rail_fast ship cable_car subway" speed="3.65" length="2.34" shape="1384.45,936.16 1383.28,935.33 1382.90,934.52"/>
    </edge>
    <edge id=":3167917444_6" function="internal">
        <lane id=":3167917444_6_0" index="0" disallow="tram rail_urban rail rail_electric rail_fast ship cable_car subway" speed="3.65" length="2.34" shape="1382.90,934.52 1383.32,933.73 1384.55,932.97"/>
    </edge>
    <edge id=":3167917444_3" function="internal">
        <lane id=":3167917444_3_0" index="0" disallow="tram rail_urban rail rail_electric rail_fast ship cable_car subway" speed="11.18" length="0.29" shape="1384.36,929.76 1384.64,929.77"/>
        <lane id=":3167917444_3_1" index="1" disallow="tram rail_urban rail rail_electric rail_fast ship cable_car subway" speed="11.18" length="0.29" shape="1384.25,932.96 1384.55,932.97"/>
    </edge>
    <edge id=":3167917444_5" function="internal">
        <lane id=":3167917444_5_0" index="0" disallow="tram rail_urban rail rail_electric rail_fast ship cable_car subway" speed="3.65" length="2.34" shape="1384.25,932.96 1385.43,933.80 1385.80,934.61"/>
    </edge>
    <edge id=":3167917444_7" function="internal">
        <lane id=":3167917444_7_0" index="0" disallow="tram rail_urban rail rail_electric rail_fast ship cable_car subway" speed="3.65" length="2.34" shape="1385.80,934.61 1385.37,935.39 1384.15,936.15"/>
    </edge>
    <edge id=":3182212071_0" function="internal">
        <lane id=":3182212071_0_0" index="0" disallow="tram rail_urban rail rail_electric rail_fast ship cable_car subway" speed="11.18" length="0.10" shape="1332.40,741.38 1332.40,741.38"/>
    </edge>
    <edge id=":3182212071_1" function="internal">
        <lane id=":3182212071_1_0" index="0" disallow="tram rail_urban rail rail_electric rail_fast ship cable_car subway" speed="11.18" length="0.10" shape="1329.20,741.28 1329.20,741.28"/>
    </edge>
    <edge id=":3182212072_0" function="internal">
        <lane id=":3182212072_0_0" index="0" disallow="tram rail_urban rail rail_electric rail_fast ship cable_car subway" speed="11.18" length="0.27" shape="1412.46,744.74 1412.46,745.01"/>
    </edge>
    <edge id=":3182212072_1" function="internal">
        <lane id=":3182212072_1_0" index="0" disallow="tram rail_urban rail rail_electric rail_fast ship cable_car subway" speed="11.18" length="0.31" shape="1409.26,744.96 1409.26,744.65"/>
    </edge>
    <edge id=":3182212073_0" function="internal">
        <lane id=":3182212073_0_0" index="0" disallow="tram rail_urban rail rail_electric rail_fast ship cable_car subway" speed="11.18" length="0.10" shape="1411.48,787.89 1411.48,787.89"/>
    </edge>
    <edge id=":3182212073_1" function="internal">
        <lane id=":3182212073_1_0" index="0" disallow="tram rail_urban rail rail_electric rail_fast ship cable_car subway" speed="11.18" length="0.10" shape="1408.28,787.79 1408.28,787.79"/>
    </edge>
    <edge id=":3182212076_0" function="internal">
        <lane id=":3182212076_0_0" index="0" disallow="tram rail_urban rail rail_electric rail_fast ship cable_car subway" speed="11.18" length="0.30" shape="1450.34,822.55 1450.64,822.55"/>
    </edge>
    <edge id=":3182212077_0" function="internal">
        <lane id=":3182212077_0_0" index="0" disallow="tram rail_urban rail rail_electric rail_fast ship cable_car subway" speed="11.18" length="0.27" shape="1452.80,710.73 1452.54,710.73"/>
    </edge>
    <edge id=":3292949046_0" function="internal">
        <lane id=":3292949046_0_0" index="0" disallow="tram rail_urban rail rail_electric rail_fast ship cable_car subway" speed="3.65" length="4.67" shape="1336.83,513.19 1337.67,512.01 1338.48,511.64 1339.27,512.07 1340.03,513.29"/>
    </edge>
    <edge id=":3292949048_0" function="internal">
        <lane id=":3292949048_0_0" index="0" disallow="tram rail_urban rail rail_electric rail_fast ship cable_car subway" speed="3.65" length="4.67" shape="1416.01,516.44 1416.85,515.26 1417.66,514.89 1418.45,515.32 1419.21,516.54"/>
    </edge>
    <edge id=":3292949049_0" function="internal">
        <lane id=":3292949049_0_0" index="0" disallow="tram rail_urban rail rail_electric rail_fast ship cable_car subway" speed="3.65" length="4.67" shape="1496.77,526.33 1497.60,525.15 1498.41,524.77 1499.20,525.19 1499.97,526.41"/>
    </edge>
    <edge id=":3292949057_0" function="internal">
        <lane id=":3292949057_0_0" index="0" disallow="tram rail_urban rail rail_electric rail_fast ship cable_car subway" speed="3.65" length="4.67" shape="1577.97,545.40 1578.81,544.22 1579.62,543.85 1580.41,544.28 1581.17,545.50"/>
    </edge>
    <edge id=":3292949079_0" function="internal">
        <lane id=":3292949079_0_0" index="0" disallow="tram rail_urban rail rail_electric rail_fast ship cable_car subway" speed="11.18" length="0.10" shape="1535.53,714.25 1535.53,714.25"/>
    </edge>
    <edge id=":3292949079_1" function="internal">
        <lane id=":3292949079_1_0" index="0" disallow="tram rail_urban rail rail_electric rail_fast ship cable_car subway" speed="11.18" length="0.10" shape="1535.65,711.05 1535.65,711.05"/>
    </edge>
    <edge id=":3444960769_0" function="internal">
        <lane id=":3444960769_0_0" index="0" disallow="tram rail_urban rail rail_electric rail_fast ship cable_car subway" speed="11.18" length="0.10" shape="1572.99,794.85 1572.99,794.85"/>
    </edge>
    <edge id=":3444960769_1" function="internal">
        <lane id=":3444960769_1_0" index="0" disallow="tram rail_urban rail rail_electric rail_fast ship cable_car subway" speed="11.18" length="0.10" shape="1569.79,794.75 1569.79,794.75"/>
    </edge>
    <edge id=":3444960769_2" function="internal">
        <lane id=":3444960769_2_0" index="0" disallow="tram rail_urban rail rail_electric rail_fast ship cable_car subway" speed="3.65" length="2.34" shape="1569.79,794.75 1570.63,793.57 1571.44,793.20"/>
    </edge>
    <edge id=":3444960769_3" function="internal">
        <lane id=":3444960769_3_0" index="0" disallow="tram rail_urban rail rail_electric rail_fast ship cable_car subway" speed="3.65" length="2.34" shape="1571.44,793.20 1572.23,793.63 1572.99,794.85"/>
    </edge>
    <edge id=":3444960779_0" function="internal">
        <lane id=":3444960779_0_0" index="0" disallow="tram rail_urban rail rail_electric rail_fast ship cable_car subway" speed="11.18" length="0.10" shape="1532.65,826.94 1532.65,826.94"/>
    </edge>
    <edge id=":3444960779_1" function="internal">
        <lane id=":3444960779_1_0" index="0" disallow="tram rail_urban rail rail_electric rail_fast ship cable_car subway" speed="11.18" length="0.10" shape="1532.77,823.74 1532.77,823.74"/>
    </edge>
    <edge id=":3458580379_0" function="internal">
        <lane id=":3458580379_0_0" index="0" disallow="tram rail_urban rail rail_electric rail_fast ship cable_car subway" speed="11.18" length="0.29" shape="1405.43,939.98 1405.14,939.97"/>
        <lane id=":3458580379_0_1" index="1" disallow="tram rail_urban rail rail_electric rail_fast ship cable_car subway" speed="11.18" length="0.29" shape="1405.53,936.78 1405.23,936.77"/>
    </edge>
    <edge id=":3458580379_2" function="internal">
        <lane id=":3458580379_2_0" index="0" disallow="tram rail_urban rail rail_electric rail_fast ship cable_car subway" speed="11.18" length="0.31" shape="1405.42,930.38 1405.73,930.39"/>
        <lane id=":3458580379_2_1" index="1" disallow="tram rail_urban rail rail_electric rail_fast ship cable_car subway" speed="11.18" length="0.31" shape="1405.33,933.58 1405.63,933.59"/>
    </edge>
    <edge id=":49429407_0" function="internal">
        <lane id=":49429407_0_0" index="0" disallow="tram rail_urban rail rail_electric rail_fast ship cable_car subway" speed="6.51" length="9.03" shape="1331.91,937.64 1329.45,937.92 1327.67,938.91 1326.56,940.63 1326.14,943.07"/>
    </edge>
    <edge id=":49429407_1" function="internal">
        <lane id=":49429407_1_0" index="0" disallow="tram rail_urban rail rail_electric rail_fast ship cable_car subway" speed="11.18" length="14.41" shape="1331.91,937.64 1317.50,937.18"/>
        <lane id=":49429407_1_1" index="1" disallow="tram rail_urban rail rail_electric rail_fast ship cable_car subway" speed="11.18" length="14.41" shape="1332.01,934.45 1317.60,933.99"/>
    </edge>
    <edge id=":49429407_3" function="internal">
        <lane id=":49429407_3_0" index="0" disallow="tram rail_urban rail rail_electric rail_fast ship cable_car subway" speed="8.67" length="16.86" shape="1332.01,934.45 1328.18,933.57 1325.50,931.24 1323.97,927.44 1323.58,922.17"/>
    </edge>
    <edge id=":49429407_4" function="internal">
        <lane id=":49429407_4_0" index="0" disallow="tram rail_urban rail rail_electric rail_fast ship cable_car subway" speed="3.65" length="4.67" shape="1332.01,934.45 1330.84,933.61 1330.46,932.80 1330.89,932.01 1332.11,931.25"/>
    </edge>
    <edge id=":49429407_5" function="internal">
        <lane id=":49429407_5_0" index="0" disallow="tram rail_urban rail rail_electric rail_fast ship cable_car subway" speed="6.51" length="9.04" shape="1326.78,922.27 1327.06,924.73 1328.05,926.52 1329.77,927.62 1332.21,928.05"/>
    </edge>
    <edge id=":49429407_6" function="internal">
        <lane id=":49429407_6_0" index="0" disallow="tram rail_urban rail rail_electric rail_fast ship cable_car subway" speed="11.18" length="20.81" shape="1326.78,922.27 1326.14,943.07"/>
    </edge>
    <edge id=":49429407_7" function="internal">
        <lane id=":49429407_7_0" index="0" disallow="tram rail_urban rail rail_electric rail_fast ship cable_car subway" speed="8.67" length="16.86" shape="1326.78,922.27 1326.07,927.50 1324.30,931.20 1321.48,933.36 1317.60,933.99"/>
    </edge>
    <edge id=":49429407_8" function="internal">
        <lane id=":49429407_8_0" index="0" disallow="tram rail_urban rail rail_electric rail_fast ship cable_car subway" speed="3.65" length="4.67" shape="1326.78,922.27 1325.95,923.45 1325.13,923.82 1324.35,923.40 1323.58,922.17"/>
    </edge>
    <edge id=":49429407_9" function="internal">
        <lane id=":49429407_9_0" index="0" disallow="tram rail_urban rail rail_electric rail_fast ship cable_car subway" speed="6.50" length="9.03" shape="1317.81,927.59 1320.27,927.32 1322.05,926.33 1323.16,924.61 1323.58,922.17"/>
    </edge>
    <edge id=":49429407_10" function="internal">
        <lane id=":49429407_10_0" index="0" disallow="tram rail_urban rail rail_electric rail_fast ship cable_car subway" speed="11.18" length="14.41" shape="1317.81,927.59 1332.21,928.05"/>
        <lane id=":49429407_10_1" index="1" disallow="tram rail_urban rail rail_electric rail_fast ship cable_car subway" speed="11.18" length="14.41" shape="1317.71,930.79 1332.11,931.25"/>
    </edge>
    <edge id=":49429407_12" function="internal">
        <lane id=":49429407_12_0" index="0" disallow="tram rail_urban rail rail_electric rail_fast ship cable_car subway" speed="8.68" length="16.86" shape="1317.71,930.79 1321.53,931.66 1324.22,934.00 1325.75,937.80 1326.14,943.07"/>
    </edge>
    <edge id=":49429407_13" function="internal">
        <lane id=":49429407_13_0" index="0" disallow="tram rail_urban rail rail_electric rail_fast ship cable_car subway" speed="3.65" length="4.67" shape="1317.71,930.79 1318.88,931.63 1319.25,932.44 1318.83,933.22 1317.60,933.99"/>
    </edge>
    <edge id=":49429407_14" function="internal">
        <lane id=":49429407_14_0" index="0" disallow="tram rail_urban rail rail_electric rail_fast ship cable_car subway" speed="6.52" length="9.05" shape="1322.94,942.97 1322.66,940.51 1321.67,938.72 1319.94,937.61 1317.50,937.18"/>
    </edge>
    <edge id=":49429407_15" function="internal">
        <lane id=":49429407_15_0" index="0" disallow="tram rail_urban rail rail_electric rail_fast ship cable_car subway" speed="11.18" length="20.81" shape="1322.94,942.97 1323.58,922.17"/>
    </edge>
    <edge id=":49429407_16" function="internal">
        <lane id=":49429407_16_0" index="0" disallow="tram rail_urban rail rail_electric rail_fast ship cable_car subway" speed="8.67" length="16.85" shape="1322.94,942.97 1323.65,937.74 1325.42,934.04 1328.24,931.88 1332.11,931.25"/>
    </edge>
    <edge id=":49429407_17" function="internal">
        <lane id=":49429407_17_0" index="0" disallow="tram rail_urban rail rail_electric rail_fast ship cable_car subway" speed="3.65" length="4.67" shape="1322.94,942.97 1323.78,941.79 1324.59,941.42 1325.37,941.84 1326.14,943.07"/>
    </edge>
    <edge id=":49429411_0" function="internal">
        <lane id=":49429411_0_0" index="0" disallow="tram rail_urban rail rail_electric rail_fast ship cable_car subway" speed="11.18" length="0.10" shape="1328.19,877.14 1328.19,877.14"/>
    </edge>
    <edge id=":49429411_1" function="internal">
        <lane id=":49429411_1_0" index="0" disallow="tram rail_urban rail rail_electric rail_fast ship cable_car subway" speed="11.18" length="0.10" shape="1324.99,877.04 1324.99,877.04"/>
    </edge>
    <edge id=":49429412_0" function="internal">
        <lane id=":49429412_0_0" index="0" disallow="tram rail_urban rail rail_electric rail_fast ship cable_car subway" speed="6.51" length="9.04" shape="1330.18,813.11 1330.46,815.57 1331.45,817.36 1333.17,818.46 1335.61,818.89"/>
    </edge>
    <edge id=":49429412_1" function="internal">
        <lane id=":49429412_1_0" index="0" disallow="tram rail_urban rail rail_electric rail_fast ship cable_car subway" speed="11.18" length="11.21" shape="1330.18,813.11 1329.83,824.31"/>
    </edge>
    <edge id=":49429412_2" function="internal">
        <lane id=":49429412_2_0" index="0" disallow="tram rail_urban rail rail_electric rail_fast ship cable_car subway" speed="3.65" length="1.44" shape="1330.18,813.11 1329.35,814.28"/>
    </edge>
    <edge id=":49429412_9" function="internal">
        <lane id=":49429412_9_0" index="0" disallow="tram rail_urban rail rail_electric rail_fast ship cable_car subway" speed="3.65" length="3.23" shape="1329.35,814.28 1328.53,814.66 1327.75,814.23 1326.98,813.01"/>
    </edge>
    <edge id=":49429412_3" function="internal">
        <lane id=":49429412_3_0" index="0" disallow="tram rail_urban rail rail_electric rail_fast ship cable_car subway" speed="6.51" length="9.03" shape="1321.21,818.43 1323.67,818.16 1325.45,817.16 1326.56,815.45 1326.98,813.01"/>
    </edge>
    <edge id=":49429412_4" function="internal">
        <lane id=":49429412_4_0" index="0" disallow="tram rail_urban rail rail_electric rail_fast ship cable_car subway" speed="11.18" length="14.40" shape="1321.21,818.43 1335.61,818.89"/>
    </edge>
    <edge id=":49429412_5" function="internal">
        <lane id=":49429412_5_0" index="0" disallow="tram rail_urban rail rail_electric rail_fast ship cable_car subway" speed="7.33" length="11.73" shape="1321.21,818.43 1325.05,818.90 1327.77,820.04 1329.36,821.84 1329.83,824.31"/>
    </edge>
    <edge id=":49429412_6" function="internal">
        <lane id=":49429412_6_0" index="0" disallow="tram rail_urban rail rail_electric rail_fast ship cable_car subway" speed="11.18" length="11.21" shape="1326.64,824.21 1326.98,813.01"/>
    </edge>
    <edge id=":49429412_7" function="internal">
        <lane id=":49429412_7_0" index="0" disallow="tram rail_urban rail rail_electric rail_fast ship cable_car subway" speed="7.32" length="2.51" shape="1326.64,824.21 1327.26,821.78"/>
    </edge>
    <edge id=":49429412_8" function="internal">
        <lane id=":49429412_8_0" index="0" disallow="tram rail_urban rail rail_electric rail_fast ship cable_car subway" speed="3.65" length="1.44" shape="1326.64,824.21 1327.47,823.04"/>
    </edge>
    <edge id=":49429412_10" function="internal">
        <lane id=":49429412_10_0" index="0" disallow="tram rail_urban rail rail_electric rail_fast ship cable_car subway" speed="7.32" length="9.21" shape="1327.26,821.78 1328.97,820.08 1331.75,819.12 1335.61,818.89"/>
    </edge>
    <edge id=":49429412_11" function="internal">
        <lane id=":49429412_11_0" index="0" disallow="tram rail_urban rail rail_electric rail_fast ship cable_car subway" speed="3.65" length="3.23" shape="1327.47,823.04 1328.29,822.66 1329.07,823.09 1329.83,824.31"/>
    </edge>
    <edge id=":49429413_0" function="internal">
        <lane id=":49429413_0_0" index="0" disallow="tram rail_urban rail rail_electric rail_fast ship cable_car subway" speed="11.18" length="0.10" shape="1331.69,764.38 1331.69,764.38"/>
    </edge>
    <edge id=":49429413_1" function="internal">
        <lane id=":49429413_1_0" index="0" disallow="tram rail_urban rail rail_electric rail_fast ship cable_car subway" speed="11.18" length="0.10" shape="1328.49,764.28 1328.49,764.28"/>
    </edge>
    <edge id=":49429414_0" function="internal">
        <lane id=":49429414_0_0" index="0" disallow="tram rail_urban rail rail_electric rail_fast ship cable_car subway" speed="6.50" length="9.03" shape="1339.08,706.85 1336.62,707.12 1334.84,708.11 1333.73,709.82 1333.30,712.26"/>
    </edge>
    <edge id=":49429414_1" function="internal">
        <lane id=":49429414_1_0" index="0" disallow="tram rail_urban rail rail_electric rail_fast ship cable_car subway" speed="11.18" length="14.42" shape="1339.08,706.85 1324.67,706.27"/>
    </edge>
    <edge id=":49429414_2" function="internal">
        <lane id=":49429414_2_0" index="0" disallow="tram rail_urban rail rail_electric rail_fast ship cable_car subway" speed="7.33" length="11.75" shape="1339.08,706.85 1335.24,706.37 1332.53,705.22 1330.94,703.40 1330.48,700.92"/>
    </edge>
    <edge id=":49429414_3" function="internal">
        <lane id=":49429414_3_0" index="0" disallow="tram rail_urban rail rail_electric rail_fast ship cable_car subway" speed="11.18" length="11.24" shape="1333.68,701.03 1333.30,712.26"/>
    </edge>
    <edge id=":49429414_4" function="internal">
        <lane id=":49429414_4_0" index="0" disallow="tram rail_urban rail rail_electric rail_fast ship cable_car subway" speed="7.30" length="2.53" shape="1333.68,701.03 1333.04,703.48"/>
    </edge>
    <edge id=":49429414_5" function="internal">
        <lane id=":49429414_5_0" index="0" disallow="tram rail_urban rail rail_electric rail_fast ship cable_car subway" speed="3.65" length="1.44" shape="1333.68,701.03 1332.84,702.20"/>
    </edge>
    <edge id=":49429414_9" function="internal">
        <lane id=":49429414_9_0" index="0" disallow="tram rail_urban rail rail_electric rail_fast ship cable_car subway" speed="7.30" length="9.22" shape="1333.04,703.48 1331.33,705.17 1328.54,706.10 1324.67,706.27"/>
    </edge>
    <edge id=":49429414_10" function="internal">
        <lane id=":49429414_10_0" index="0" disallow="tram rail_urban rail rail_electric rail_fast ship cable_car subway" speed="3.65" length="3.23" shape="1332.84,702.20 1332.02,702.58 1331.24,702.15 1330.48,700.92"/>
    </edge>
    <edge id=":49429414_6" function="internal">
        <lane id=":49429414_6_0" index="0" disallow="tram rail_urban rail rail_electric rail_fast ship cable_car subway" speed="6.57" length="9.11" shape="1330.11,712.16 1329.83,709.68 1328.83,707.88 1327.11,706.74 1324.67,706.27"/>
    </edge>
    <edge id=":49429414_7" function="internal">
        <lane id=":49429414_7_0" index="0" disallow="tram rail_urban rail rail_electric rail_fast ship cable_car subway" speed="11.18" length="11.25" shape="1330.11,712.16 1330.48,700.92"/>
    </edge>
    <edge id=":49429414_8" function="internal">
        <lane id=":49429414_8_0" index="0" disallow="tram rail_urban rail rail_electric rail_fast ship cable_car subway" speed="3.65" length="1.44" shape="1330.11,712.16 1330.94,710.99"/>
    </edge>
    <edge id=":49429414_11" function="internal">
        <lane id=":49429414_11_0" index="0" disallow="tram rail_urban rail rail_electric rail_fast ship cable_car subway" speed="3.65" length="3.23" shape="1330.94,710.99 1331.76,710.61 1332.54,711.04 1333.30,712.26"/>
    </edge>
    <edge id=":49429417_0" function="internal">
        <lane id=":49429417_0_0" index="0" disallow="tram rail_urban rail rail_electric rail_fast ship cable_car subway" speed="6.58" length="9.15" shape="1343.02,596.75 1340.53,597.06 1338.72,598.08 1337.60,599.81 1337.16,602.27"/>
    </edge>
    <edge id=":49429417_1" function="internal">
        <lane id=":49429417_1_0" index="0" disallow="tram rail_urban rail rail_electric rail_fast ship cable_car subway" speed="11.18" length="14.49" shape="1343.02,596.75 1328.54,596.35"/>
    </edge>
    <edge id=":49429417_2" function="internal">
        <lane id=":49429417_2_0" index="0" disallow="tram rail_urban rail rail_electric rail_fast ship cable_car subway" speed="7.98" length="14.25" shape="1343.02,596.75 1339.16,596.13 1336.45,594.41 1334.87,591.62 1334.44,587.73"/>
    </edge>
    <edge id=":49429417_3" function="internal">
        <lane id=":49429417_3_0" index="0" disallow="tram rail_urban rail rail_electric rail_fast ship cable_car subway" speed="3.65" length="4.67" shape="1343.02,596.75 1341.84,595.93 1341.45,595.12 1341.87,594.33 1343.08,593.55"/>
    </edge>
    <edge id=":49429417_4" function="internal">
        <lane id=":49429417_4_0" index="0" disallow="tram rail_urban rail rail_electric rail_fast ship cable_car subway" speed="6.48" length="9.03" shape="1337.64,587.83 1337.91,590.30 1338.91,592.07 1340.63,593.16 1343.08,593.55"/>
    </edge>
    <edge id=":49429417_5" function="internal">
        <lane id=":49429417_5_0" index="0" disallow="tram rail_urban rail rail_electric rail_fast ship cable_car subway" speed="11.18" length="14.44" shape="1337.64,587.83 1337.16,602.27"/>
    </edge>
    <edge id=":49429417_6" function="internal">
        <lane id=":49429417_6_0" index="0" disallow="tram rail_urban rail rail_electric rail_fast ship cable_car subway" speed="8.00" length="4.10" shape="1337.64,587.83 1336.97,591.68 1336.86,591.84"/>
    </edge>
    <edge id=":49429417_7" function="internal">
        <lane id=":49429417_7_0" index="0" disallow="tram rail_urban rail rail_electric rail_fast ship cable_car subway" speed="3.65" length="1.44" shape="1337.64,587.83 1336.80,589.00"/>
    </edge>
    <edge id=":49429417_16" function="internal">
        <lane id=":49429417_16_0" index="0" disallow="tram rail_urban rail rail_electric rail_fast ship cable_car subway" speed="8.00" length="10.14" shape="1336.86,591.84 1335.22,594.38 1332.41,595.94 1328.54,596.35"/>
    </edge>
    <edge id=":49429417_17" function="internal">
        <lane id=":49429417_17_0" index="0" disallow="tram rail_urban rail rail_electric rail_fast ship cable_car subway" speed="3.65" length="3.23" shape="1336.80,589.00 1335.99,589.38 1335.20,588.95 1334.44,587.73"/>
    </edge>
    <edge id=":49429417_8" function="internal">
        <lane id=":49429417_8_0" index="0" disallow="tram rail_urban rail rail_electric rail_fast ship cable_car subway" speed="6.50" length="9.05" shape="1328.66,593.15 1331.12,592.89 1332.91,591.90 1334.01,590.18 1334.44,587.73"/>
    </edge>
    <edge id=":49429417_9" function="internal">
        <lane id=":49429417_9_0" index="0" disallow="tram rail_urban rail rail_electric rail_fast ship cable_car subway" speed="11.18" length="14.43" shape="1328.66,593.15 1343.08,593.55"/>
    </edge>
    <edge id=":49429417_10" function="internal">
        <lane id=":49429417_10_0" index="0" disallow="tram rail_urban rail rail_electric rail_fast ship cable_car subway" speed="8.01" length="14.20" shape="1328.66,593.15 1332.49,593.84 1335.19,595.59 1336.74,598.40 1337.16,602.27"/>
    </edge>
    <edge id=":49429417_11" function="internal">
        <lane id=":49429417_11_0" index="0" disallow="tram rail_urban rail rail_electric rail_fast ship cable_car subway" speed="3.65" length="4.67" shape="1328.66,593.15 1329.83,594.00 1330.20,594.81 1329.77,595.59 1328.54,596.35"/>
    </edge>
    <edge id=":49429417_12" function="internal">
        <lane id=":49429417_12_0" index="0" disallow="tram rail_urban rail rail_electric rail_fast ship cable_car subway" speed="6.52" length="9.05" shape="1333.96,602.15 1333.69,599.69 1332.70,597.91 1330.98,596.79 1328.54,596.35"/>
    </edge>
    <edge id=":49429417_13" function="internal">
        <lane id=":49429417_13_0" index="0" disallow="tram rail_urban rail rail_electric rail_fast ship cable_car subway" speed="11.18" length="14.43" shape="1333.96,602.15 1334.44,587.73"/>
    </edge>
    <edge id=":49429417_14" function="internal">
        <lane id=":49429417_14_0" index="0" disallow="tram rail_urban rail rail_electric rail_fast ship cable_car subway" speed="8.07" length="4.05" shape="1333.96,602.15 1334.64,598.33 1334.73,598.19"/>
    </edge>
    <edge id=":49429417_15" function="internal">
        <lane id=":49429417_15_0" index="0" disallow="tram rail_urban rail rail_electric rail_fast ship cable_car subway" speed="3.65" length="1.44" shape="1333.96,602.15 1334.80,600.98"/>
    </edge>
    <edge id=":49429417_18" function="internal">
        <lane id=":49429417_18_0" index="0" disallow="tram rail_urban rail rail_electric rail_fast ship cable_car subway" speed="8.07" length="10.20" shape="1334.73,598.19 1336.39,595.62 1339.21,594.03 1343.08,593.55"/>
    </edge>
    <edge id=":49429417_19" function="internal">
        <lane id=":49429417_19_0" index="0" disallow="tram rail_urban rail rail_electric rail_fast ship cable_car subway" speed="3.65" length="3.23" shape="1334.80,600.98 1335.61,600.61 1336.40,601.04 1337.16,602.27"/>
    </edge>
    <edge id=":49429420_0" function="internal">
        <lane id=":49429420_0_0" index="0" disallow="tram rail_urban rail rail_electric rail_fast ship cable_car subway" speed="6.50" length="9.03" shape="1344.85,537.59 1342.39,537.85 1340.60,538.84 1339.50,540.56 1339.07,543.00"/>
    </edge>
    <edge id=":49429420_1" function="internal">
        <lane id=":49429420_1_0" index="0" disallow="tram rail_urban rail rail_electric rail_fast ship cable_car subway" speed="6.71" length="14.41" shape="1344.85,537.59 1330.45,537.09"/>
    </edge>
    <edge id=":49429420_2" function="internal">
        <lane id=":49429420_2_0" index="0" disallow="tram rail_urban rail rail_electric rail_fast ship cable_car subway" speed="7.33" length="11.74" shape="1344.85,537.59 1341.01,537.10 1338.30,535.96 1336.70,534.15 1336.23,531.68"/>
    </edge>
    <edge id=":49429420_3" function="internal">
        <lane id=":49429420_3_0" index="0" disallow="tram rail_urban rail rail_electric rail_fast ship cable_car subway" speed="11.18" length="11.21" shape="1339.43,531.79 1339.07,543.00"/>
    </edge>
    <edge id=":49429420_4" function="internal">
        <lane id=":49429420_4_0" index="0" disallow="tram rail_urban rail rail_electric rail_fast ship cable_car subway" speed="7.32" length="2.51" shape="1339.43,531.79 1338.80,534.22"/>
    </edge>
    <edge id=":49429420_5" function="internal">
        <lane id=":49429420_5_0" index="0" disallow="tram rail_urban rail rail_electric rail_fast ship cable_car subway" speed="3.65" length="1.44" shape="1339.43,531.79 1338.59,532.96"/>
    </edge>
    <edge id=":49429420_9" function="internal">