<?xml version="1.0" encoding="UTF-8"?>

<!-- generated on 2024-01-28 12:50:11.121664 by $Id: ptlines2flows.py v1_3_1+0313-ccb31df3eb jakob.erdmann@dlr.de 2019-09-02 13:26:32 +0200 $ UNKNOWN
<configuration>
    <net-file value="/usr/share/sumo/tools/2024-01-28-12-50-06/osm.net.xml.gz"/>
    <ptlines-file value="/usr/share/sumo/tools/2024-01-28-12-50-06/osm_ptlines.xml"/>
    <ptstops-file value="/usr/share/sumo/tools/2024-01-28-12-50-06/osm_stops.add.xml"/>
    <output-file value="/usr/share/sumo/tools/2024-01-28-12-50-06/osm_pt.rou.xml"/>
    <stopinfos-file value="/usr/share/sumo/tools/2024-01-28-12-50-06/stopinfos.xml"/>
    <routes-file value="/usr/share/sumo/tools/2024-01-28-12-50-06/vehroutes.xml"/>
    <trips-file value="/usr/share/sumo/tools/2024-01-28-12-50-06/trips.trips.xml"/>
    <min-stops value="0"/>
    <extend-to-fringe value="True"/>
    <random-begin value="True"/>
    <seed value="42"/>
    <ignore-errors value="True"/>
    <vtype-prefix value="pt_"/>
    <verbose value="True"/>
</configuration>
-->

<routes xmlns:xsi="http://www.w3.org/2001/XMLSchema-instance" xsi:noNamespaceSchemaLocation="http://sumo.dlr.de/xsd/routes_file.xsd">
    <vType id="pt_bus" vClass="bus" speedFactor="0.95"/>
    <vType id="pt_tram" vClass="tram" speedFactor="1.0"/>
    <vType id="pt_train" vClass="rail"/>
    <vType id="pt_subway" vClass="rail_urban"/>
    <vType id="pt_light_rail" vClass="rail_urban"/>
    <vType id="pt_monorail" vClass="rail_urban"/>
    <vType id="pt_trolleybus" vClass="bus" speedFactor="0.95"/>
    <vType id="pt_minibus" vClass="bus" speedFactor="0.95"/>
    <vType id="pt_share_taxi" vClass="taxi" speedFactor="0.95"/>
    <vType id="pt_aerialway" vClass="rail_urban" length="2.5" width="2" personCapacity="4"/>
    <vType id="pt_ferry" vClass="ship"/>
    <trip id="0_bus_NV:0" type="pt_bus" depart="15.0" departLane="best" from="138388359#0" to="192469470#2">
        <stop busStop="6117399256" duration="30"/>
    </trip>
    <trip id="1_bus_NV:1" type="pt_bus" depart="133.0" departLane="best" from="138388359#0" to="192469470#2">
        <stop busStop="6117378696" duration="30"/>
    </trip>
    <trip id="2_bus_NV:2" type="pt_bus" depart="165.0" departLane="best" from="-192469470#2" to="-138388359#1">
        <stop busStop="-6117388035" duration="30"/>
    </trip>
    <trip id="3_bus_65:0" type="pt_bus" depart="383.0" departLane="best" from="86092338#0" to="192469470#2">
        <stop busStop="2516605830" duration="30"/>
    </trip>
    <trip id="4_bus_65:1" type="pt_bus" depart="406.0" departLane="best" from="-192469470#2" to="-86092338#0">
        <stop busStop="-4501242775" duration="30"/>
    </trip>
    <trip id="5_bus_63:0" type="pt_bus" depart="441.0" departLane="best" from="138388359#0" to="390061613#9">
        <stop busStop="6117399256" duration="30"/>
    </trip>
    <trip id="6_bus_63:1" type="pt_bus" depart="535.0" departLane="best" from="-390061613#9" to="-138388359#1">
        <stop busStop="-6117388035" duration="30"/>
    </trip>
</routes>
